I
N
D
E
X
FAUCETS
CONTINENTAL PRIME  
4 
QUEEN’S PRIME  
4 
ARC 
5 
KUBIX PRIME 
5
OPAL PRIME 
6
ORNAMIX PRIME 
7
VIGNETTE PRIME 
8
ALIVE 
8
D’ARC 
9
LYRIC 
10
ARIA 
10
FONTE 
11
FUSION 
12
SOLO 
13
QUEENS 
14
FLORENTINE 
15
CLARION 
17
EKO  
17
CONTINENTAL 
18
SENSOR 
19
PRESSMATIC 
20
NEW AGE PRESSMATIC  
20
MEDI SERIES 
20
SPOUT OPERATING TAPS 
20
AQUAMAX THERMOSTATE  
20
THERMOSTATIC MIXERS  
21
FLUSH VALVES 
22
I-FLUSH  
22
BATHTUB SPOUTS 
22
ALLIED 
23
CONTINENTAL ACCESSORIES  
24
KUBIX PRIME ACCESSORIES  
25
QUEENS ACCESSORIES 
25
HOTELIER ACCESSORIES 
26
SHOWERS
BODY SHOWERS 
27
OVERHEAD SHOWERS 
27
HAND SHOWERS 
28
SHOWER – ACCESSORIES 
29
WASHROOM ACCESSORIES 
30
ACCESSORIES - (FOR DISABLED) 
30
FLUSHING SYSTEMS 
31
FLUSHING PLATES 
31
WELLNESS 
 
WHIRLPOOL  
32
BATH TUB  
32
BATH TUB WITH MS FRAME 
33
BATH TUB PANEL 
33 
FREESTANDING BATH TUB 
33
ACCESSORIES- BATH TUB 
34
SHOWER PANEL 
34
STEAM SOLUTIONS 
34
SPA 
35
SAUNA 
35
SHOWER ENCLOSURES
READY TO USE 
36
FRAMED 
37
FRAMELESS - IARA SERIES - 8MM 
38 
FRAMELESS - IARA SERIES - 10MM 
41
RITZ COLLECTIONS 
44
STARK SERIES  
47
ARTIFICIAL LEDGE  
48
STARK SERIES : BLACK ( BLM )  
49 
NEW SQUARE HARDWARE SERIES 
50
SLIDING 
51
AURA 
52
OPTIMA STANDARD 
52
NOVA 
52
STEAM 
53
SOLUTION FOR STEAM - ROOF 
53
SANITARYWARE
ALIVE  
54
ARC 
54
ARIA  
54
BIDSPA  
54
D’ARC  
54
CONTINENTAL 
55
DISABLED 
55
FLORENTINE 
56
FONTE 
56 
KUBIX 
56
FUSION 
57
JAQUAR DESIGNER BASIN 
57
OPAL 
57
LYRIC 
58
ORNAMIX 
58
URINAL 
58
QUEENS PRIME 
59
SOLO 
59
VIGNETTE 
60
WATER HEATERS 
INSTA ELECTRIC 
61
ELENA VERTICAL MANUAL  
61
ELENA+ VERTICAL MANUAL 
61
ERICA VERTICAL MANUAL 
61
ERICA VERTICAL DIGITAL  
61
ELENA HORIZONTAL MANUAL 
61
VERSA HORIZONTAL MANUAL 
61
VERSA VERTICAL MANUAL 
61
VERSA HORIZONTAL DIGITAL  
62
ALEXA HORIZONTAL DIGITAL 
62
ELENA PRIME VERTICAL MANUAL 
62
META VERTICAL MANUAL 
62
META VERTICAL SEMI DIGITAL 
62
INSTA GAS 
62
VERNA FLOOR MOUNTING 
62
INTEGRA-X MONOBLOC HEAT PUMP  
62
INTEGRA SPLIT HEAT PUMP 
 63 
INTEGRA-X SPLIT HEAT PUMP  
63
4
FAUCETS
QUEEN’S PRIME
CONTINENTAL PRIME
PART CODE
Description
 NRP 
QQP-CHR-7001BPM
Single Lever Basin Mixer without Popup Waste with 450mm Long Braided Hoses
4,340
QQP-CHR-7051BPM
Single Lever Basin Mixer with Popup Waste with 450mm Long Braided Hoses
5,650
QQP-CHR-7065NKPM
Single Lever Exposed Parts Kit of Diverter Consisting of Operating Lever, Wall Flange (with Seals) & Button Only 
(Compatible with Item ALD-065N)
1,250
QQP-CHR-7079NKPM
Single Lever Exposed Parts Kit of Hi-flow Diverter Consisting of Operating Lever, Cartridge Sleeve, Wall Flange 
(with Seals), Button Assembly Sleeve & Button (Compatible with Item ALD-079N)
1,940
QQP-CHR-7213BPM
Single Lever 1-Hole Bidet Mixer with Popup Waste System with 375mm Long Braided Hoses
5,650
QQP-CHR-7011PM
Pillar Cock
2,570
QQP-CHR-7167BPM
Central Hole Basin Mixer without Popup Waste System with 450mm Long Braided Hoses
4,600
QQP-CHR-7169BPM
Central Hole Basin Mixer with Popup Waste System with 450mm Long Braided Hoses
5,470
QQP-CHR-7189PM
3-Hole Basin Mixer without Popup Waste System
6,000
QQP-CHR-7191PM
3-Hole Basin Mixer with Popup Waste System
6,830
QQP-CHR-7433PM
Two Concealed Stop Cocks with Basin Spout (Composite One Piece Body)
 5,910
QQP-CHR-7217PM
Wall Mixer with Telephone Shower Arrangement, Connecting Legs & Wall Flanges but without Crutch & 
Telephone Shower
6,610
QQP-CHR-7215PM
Exposed Wall Mixer with Provision Only for Overhead Shower & Hand Shower with Connecting Legs & Wall 
Flanges
5,860
QQP-CHR-7267PM
Wall Mixer with Connector for Hand Shower arrangement with Connecting Legs, Wall Flanges & Wall Bracket for 
Hand Shower
7,090
QQP-CHR-7273PM
Wall Mixer with Provision For Overhead Shower with 115mm Long Bend Pipe On Upper Side, Connecting Legs 
& Wall Flanges
7,250
PART CODE
Description
 NRP 
COP-CHR-001BPM
Single Lever Basin Mixer without Popup Waste with 450mm Long Braided Hoses
 2,940 
COP-CHR-051BPM
Single Lever Basin Mixer with Popup Waste with 450mm Long Braided Hoses
 3,750
COP-CHR-005BPM
Single Lever Tall Boy without Popup Waste System, with 600mm Long Braided Hoses
 3,910 
COP-CHR-119PM
Single Lever Wall Mixer with Provision of Hand Shower, But without Hand Shower
 4,200
COP-CHR-227KPM
Single Lever Exposed Parts Kit of Deusch Mixer Consisting of Operating Lever, Cartridge Sleeve & Wall Flange 
with Seals (Compatible with ALD-227 & ALD-229)
870
COP-CHR-055KPM
Single Lever Exposed Parts Kit of Diverter Consisting of Operating Lever, Cartridge Sleeve, Wall Flange (with 
Seals) Button Assembly Sleeve & Button (Compatible with ALD-055N)
 1,090
COP-CHR-179BPM
Side Single Lever Sink Mixer with Swinging Spout (Table Mounted) with 450mm Long Braided Hoses 
 3,790
COP-CHR-213BPM
Single Lever 1-Hole Bidet Mixer with Popup Waste System with 375mm Long Braided Hoses
3,750
COP-CHR-167BPM
Central Hole Basin Mixer without Popup Waste System with 450mm Long Braided Hoses
3,500
COP-CHR-169BPM
Central Hole Basin Mixer with Popup Waste System with 450mm Long Braided Hoses
 4,300
COP-CHR-011PM
Pillar Cock
1,350
COP-CHR-021PM
Pillar Cock with Extension Body
2,130
COP-CHR-209PM
Shower Mixer for Shower Cubicles (Wall Mounted) with Connecting Legs & Flanges
2,740
COP-CHR-273PM
Wall Mixer with Provision for Overhead Shower with 115mm Long Bend Pipe On Upper Side, Connecting Legs & 
Wall Flanges
5,410
COP-CHR-281PM
Wall Mixer 3-in-1 System with Provision for both Hand Shower and Overhead Shower Complete with 115mm 
Long Bend Pipe, Connecting Legs & Wall Flange (without Hand & Overhead Shower)
 5,930
COP-CHR-309PM
Sink Mixer with Pipe Swinging Spout (Wall Mounted Model) with Connecting Legs & Wall Flanges
3,350
COP-CHR-347PM
Sink Cock with Pipe Swinging Spout (Wall Mounted Model) with Wall Flange
1,700 
COP-CHR-037PM
Bib Cock with Wall Flange
1,230
COP-CHR-107PM
Long Body Bib Cock with Wall Flange
1,520
COP-CHR-041PM
2-way Bib Cock with Wall Flange
1,340
COP-CHR-057PM
Angular Stop Cock with Wall Flange
1,020
COP-CHR-083KPM
Exposed Part Kit of Concealed Stop Cock with Fitting Sleeve, Operating Lever & Adjustable Wall Flange with 
Seal (compatible with ALD-083 & ALD-089)
510
COP-CHR-081KPM
Exposed Part Kit of Concealed Flush Cock with Fitting Sleeve, Operating Lever & Adjustable Wall Flange with 
Seal (compatible with ALD-081)
510
5
KUBIX PRIME
PART CODE
Description
 NRP 
KUP-CHR-35011BPM
Single Lever Basin Mixer without Popup Waste with 450mm Long Braided Hoses
5,810
KUP-CHR-35051BPM
Single Lever Basin Mixer with Popup Waste with 450mm Long Braided Hoses
6,500
KUP-CHR-35005BPM
Single Lever Tall Boy with 155mm Extension Body Fixed Spout without Popup Waste System with 600mm Long 
Braided Hoses
6,910
KUP-CHR-35233NKPM
Exposed Part Kit of Single Lever Basin Mixer Wall Mounted Consisting of Operating Lever, Cartridge Sleeve, Wall 
Flange, Nipple & Spout (Compatible with ALD-233N & ALD-235N)
4,020
KUP-CHR-35115PM
Single Lever Wall Mixer with Provision for Connection to Exposed Shower Pipe (SHA-1211N) with Connecting 
Legs & Wall Flanges 
8,600
KUP-CHR-35117PM
Single Lever Wall Mixer with Provision For Overhead Shower with 115mm Long Bend Pipe On Upper Side, 
Connecting Legs & Wall Flanges
9,470
KUP-CHR-35119PM
Single Lever Wall Mixer with Provision of Hand Shower, But without Hand Shower
9,030 
KUP-CHR-35125PM
Single Lever Wall Mixer 3-in-1 System with Provision for both Hand Shower and Overhead Shower Complete 
with 115mm Long Bend Pipe, Connecting Legs & Wall Flange (without Hand & Overhead Shower)
9,960
KUP-CHR-35149PM
Single Lever Exposed Shower Mixer for Connection to Hand Shower with Connecting Legs & Wall Flanges
5,360
KUP-CHR-35783KPM
Aquamax Exposed Part Kit of Single Lever Shower Mixer with 3-way diverter (Suitable for ALD-783)
2,430
KUP-CHR-35065NKPM
Single Lever Exposed Parts Kit of Diverter Consisting of Operating Lever, Wall Flange (with Seals) & Button Only 
(Compatible with Item ALD-065N)
1,650
PART CODE
Description
 NRP 
QQP-CHR-7281PM
Wall Mixer 3-in-1 System with Provision for both Hand Shower and Overhead Shower Complete with 115mm 
Long Bend Pipe, Connecting Legs & Wall Flange (without Hand & Overhead Shower)
7,750
QQP-CHR-7209PM
Shower Mixer for Shower Cubicles (Wall Mounted) with Connecting Legs & Flanges
 4,290
QQP-CHR-7271PM
Bath Tub Mixer (Exposed Straight Legs) with Telephone Shower Arrangement & Crutch (without Hand Shower 
and Hoses)
9,140 
QQP-CHR-7271PMHL
Bath and Shower Mixer with Telephonic Shower Crutch and 950mm High Rise Legs (without Shower & Shower 
Hose)
17,750 
QQP-CHR-7307PM
Sink Mixer with Short Swinging Spout (Wall Mounted Model) with Connecting Legs & Wall Flanges
5,300
QQP-CHR-7309PM
Sink Mixer with Regular Swinging Spout (Wall Mounted Model) with Connecting Legs & Wall Flanges
5,400
QQP-CHR-7347PM
Sink Cock with Regular Swinging Spout (Wall Mounted Model) with Wall Flange
2,950
QQP-CHR-7037PM
Bib Cock with Wall Flange
2,090
QQP-CHR-7041PM
2-Way Bib Cock with Wall Flange
2,410
QQP-CHR-7053PM
Angular Stop Cock with Wall Flange
1,470
QQP-CHR-7083KPM
Exposed Part Kit of Concealed Stop Cock & Flush Cock with Fitting Sleeve, Operating Lever & Adjustable Wall 
Flange with Seal (compatible with ALD-083, ALD-089 & ALD-081)
1,190
QUEEN’S PRIME
PART CODE
Description
 NRP 
ARC-CHR-87011B
Joystick Basin Mixer without Popup Waste with 450mm Long Braided Hoses
7,800
ARC-CHR-87233K
Exposed Part Kit of Joystick Basin Mixer Wall Mounted Consisting of Operating Lever, Cartridge Sleeve, Wall 
Flange, Nipple & Spout (Compatible with ARC-87233C)
6,070
ARC-CHR-87233C
Concealed Body for Joystick Basin Mixer Wall Mounted without Exposed Parts
3,100 
ARC-CHR-87065K
Exposed Parts Kit of Joystick Concealed Diverter Consisting of Operating Lever, Cartridge Sleeve Set, Wall 
Flange (with Seals), Button Assembly Sleeve & Button (Suitable For Item ARC-87065C)
3,860
ARC-CHR-87065C
Concealed Body for Joystick Diverter 40mm Cartridge with Button Assembly, (Button On Top) But without 
Exposed Parts
3,540
ARC-CHR-87213B
Joystick 1-Hole Bidet Mixer with Popup Waste System & 375mm Long Braided Hoses
8,010
ARC-CHR-87189
3-Hole Basin Mixer without Popup Waste System, 15mm Cartridge Size
9,600 
ARC-CHR-87191
3-Hole Basin Mixer with Popup Waste System, 15mm Cartridge Size
10,750 
ARC-CHR-87433
Two Concealed Stop Cocks with Basin Spout (Composite One Piece Body)
6,850
ARC
6
KUBIX PRIME
PART CODE
Description
 NRP 
OPP-CHR-15011BPM
Single Lever Basin Mixer without Popup Waste with 450mm Long Braided Hoses
3,910
OPP-CHR-15051BPM
Single Lever Basin Mixer with Popup Waste with 450mm Long Braided Hoses
5,010
OPP-CHR-15005BPM
Single Lever Tall Boy with 150mm Extension Body Fixed Spout without Popup Waste System with 600mm Long 
Braided Hoses
5,320
OPP-CHR-15233NKPM
Exposed Part Kit of Single Lever Basin Mixer Wall Mounted Consisting of Operating Lever, Cartridge Sleeve, Wall 
Flange, Nipple & Spout (Compatible with ALD-233N & ALD-235N)
3,380
OPP-CHR-15115PM
Single Lever Wall Mixer with Provision for Connection to Exposed Shower Pipe (SHA-1211N) with Connecting 
Legs & Wall Flanges 
7,000
OPP-CHR-15119PM
Single Lever Wall Mixer with Provision of Hand Shower, But without Hand Shower
6,930
OPP-CHR-15117PM
Single Lever Wall Mixer with Provision For Overhead Shower with 115mm Long Bend Pipe On Upper Side, 
Connecting Legs & Wall Flanges
7,740
OPP-CHR-15125PM
Single Lever Wall Mixer 3-in-1 System with Provision for both Hand Shower and Overhead Shower Complete 
with 115mm Long Bend Pipe, Connecting Legs & Wall Flange (without Hand & Overhead Shower)
 8,220
OPP-CHR-15149PM
Single Lever Exposed Shower Mixer for Connection to Hand Shower with Connecting Legs & Wall Flanges 
4,150
OPP-CHR-15783KPM
Aquamax Exposed Part Kit of Single Lever Shower Mixer with 3-way diverter (Suitable for ALD-783)
2,350
OPP-CHR-15065NKPM
Single Lever Exposed Parts Kit of Diverter Consisting of Operating Lever, Wall Flange (with Seals) & Button Only 
(Compatible with Item ALD-065N)
1,450
OPP-CHR-15079NKPM
Single Lever Exposed Parts Kit of Hi-flow Diverter Consisting of Operating Lever, Cartridge Sleeve, Wall Flange 
(with Seals), Button Assembly Sleeve & Button (Compatible with ALD-079N)
1,780
OPP-CHR-15193KPM
Single Lever 3-inlet Divertor Exposed parts kit Consisting of Operating Lever, Wall Flange & Button Only (Suitable 
For Item ALD-193)
1,570
OPP-CHR-15227KPM
Single Lever Exposed Parts Kit of Deusch Mixer Consisting of Operating Lever, Cartridge Sleeve, Wall Flange 
(with Seals), (Compatible with ALD-227 & ALD-229)
 1,280
OPP-CHR-15121KPM
Exposed Parts of Floor Mounted Single Lever Bath Mixer with Provision for Hand Shower, without Hand Shower 
& Shower Hose (Compatible with ALD-121)
 37,140
OPP-CHR-15173BPM
Single Lever Sink Mixer with Swinging Spout (Table Mounted) with 450mm Long Braided Hoses
3,680
OPP-CHR-15213BPM
Single Lever 1-Hole Bidet Mixer with Popup Waste System with 375mm Long Braided Hoses
5,010
OPAL PRIME
PART CODE
Description
 NRP 
KUP-CHR-35079NKPM
Single Lever Exposed Parts Kit of Hi-flow Diverter Consisting of Operating Lever, Cartridge Sleeve, Wall Flange 
(with Seals), Button Assembly Sleeve & Button (Compatible with ALD-079N)
2,000
KUP-CHR-35193KPM
Single Lever 3-inlet Diverter Exposed parts kit Consisting of Operating Lever, Wall Flange & Button Only (Suitable 
For Item ALD-193)
1,900
KUP-CHR-35227KPM
Single Lever Exposed Parts Kit of Deusch Mixer Consisting of Operating Lever, Cartridge Sleeve, Wall Flange 
(with Seals), (Compatible with ALD-227 & ALD-229)
1,430
KUP-CHR-35121KPM
Exposed Parts of Floor Mounted Single Lever Bath Mixer with Provision for Hand Shower, without Hand Shower 
& Shower Hose (Compatible with ALD-121)
38,990
KUP-CHR-35213BPM
Single Lever 1-Hole Bidet Mixer with Popup Waste System with 375mm Long Braided Hoses
6,500 
KUP-CHR-35001PM
Pillar Cock
2,210
KUP-CHR-35021PM
Pillar Cock with 190mm Extension Body
3,370
KUP-CHR-35189PM
3-Hole Basin Mixer without Popup Waste System, 15mm Cartridge Size
7,930
KUP-CHR-35191PM
3-Hole Basin Mixer with Popup Waste System, 15mm Cartridge Size
8,960
KUP-CHR-35433PM
Two Concealed Stop Cocks with Basin Spout (Composite One Piece Body)
5,520
KUP-CHR-35441KPM
Exposed Part Kit of Single Concealed Stop Cock Consisting of Operating Lever, Cartridge Sleeve, Wall Flange 
(with Seals) & Basin Spout (Compatible with ALD-441)
2,230
KUP-CHR-35037PM
Bib Cock with Wall Flange
1,970
KUP-CHR-35041PM
2 Way Bib Cock with Wall Flange
2,350
KUP-CHR-35053PM
Angular Stop Cock with Wall Flange
1,450
KUP-CHR-35083KPM
Exposed Part Kit of Concealed Stop Cock & Flush Cock with Fitting Sleeve, Operating Lever & Adjustable Wall 
Flange with Seal (compatible with ALD-083, ALD-089 & ALD-081)
820
7
OPAL PRIME
ORNAMIX PRIME
PART CODE
Description
 NRP 
ORP-CHR-10011BPM
Single Lever Basin Mixer without Popup Waste with 450mm Long Braided Hoses
3,910
ORP-CHR-10051BPM
Single Lever Basin Mixer with Popup Waste with 450mm Long Braided Hoses
5,010
ORP-CHR-10005BPM
Single Lever Tall Boy with 150mm Extension Body Fixed Spout without Popup Waste System with 600mm Long 
Braided Hoses
5,320
ORP-CHR-10233NKPM
Exposed Part Kit of Single Lever Basin Mixer Wall Mounted Consisting of Operating Lever, Cartridge Sleeve, Wall 
Flange, Nipple & Spout (Compatible with ALD-233N & ALD-235N)
3,380
ORP-CHR-10115PM
Single Lever Wall Mixer with Provision for Connection to Exposed Shower Pipe (SHA-1211N) with Connecting 
Legs & Wall Flanges 
7,000
ORP-CHR-10119PM
Single Lever Wall Mixer with Provision of Hand Shower, But W/O Hand Shower
6,930
ORP-CHR-10117PM
Single Lever Wall Mixer with Provision For Overhead Shower with 115mm Long Bend Pipe On Upper Side, 
Connecting Legs & Wall Flanges
7,740
ORP-CHR-10125PM
Single Lever Wall Mixer 3-in-1 System with Provision for both Hand Shower and Overhead Shower Complete 
with 115mm Long Bend Pipe, Connecting Legs & Wall Flange (without Hand & Overhead Shower)
8,220
ORP-CHR-10149PM
Single Lever Exposed Shower Mixer for Connection to Hand Shower with Connecting Legs & Wall Flanges 
4,150
ORP-CHR-10783KPM
Aquamax Exposed Part Kit of Single Lever Shower Mixer with 3-way diverter (Suitable for ALD-783)
2,350
ORP-CHR-10065NKPM
Single Lever Exposed Parts Kit of Diverter Consisting of Operating Lever, Wall Flange (with Seals) & Button Only 
(Compatible with Item ALD-065N)
1,450
ORP-CHR-10079NKPM
Single Lever Exposed Parts Kit of Hi-flow Diverter Consisting of Operating Lever, Cartridge Sleeve, Wall Flange 
(with Seals), Button Assembly Sleeve & Button (Compatible with ALD-079N)
1,780
ORP-CHR-10193KPM
Single Lever 3-inlet Divertor Exposed parts kit Consisting of Operating Lever, Wall Flange & Button Only (Suitable 
For Item ALD-193)
1,570
ORP-CHR-10227KPM
Single Lever Exposed Parts Kit of Deusch Mixer Consisting of Operating Lever, Cartridge Sleeve, Wall Flange 
(with Seals), (Compatible with ALD-227 & ALD-229)
1,280
ORP-CHR-10121KPM
Exposed Parts of Floor Mounted Single Lever Bath Mixer with Provision for Hand Shower, without Hand Shower 
& Shower Hose (Compatible with ALD-121)
37,140
ORP-CHR-10173BPM
Single Lever Sink Mixer with Swinging Spout (Table Mounted) with 450mm Long Braided Hoses
3,680
ORP-CHR-10213BPM
Single Lever 1-Hole Bidet Mixer with Popup Waste System with 375mm Long Braided Hoses
5,010
ORP-CHR-10001PM
Pillar Cock
1,920
ORP-CHR-10021PM
Pillar Cock with 200mm Extension Body
2,650
ORP-CHR-10433PM
Two Concealed Stop Cocks with Basin Spout (Composite One Piece Body)
4,670
ORP-CHR-10441KPM
Exposed Part Kit of Single Concealed Stop Cock Consisting of Operating Lever, Cartridge Sleeve of Wall Flange 
(with Seals) & Basin Spout (Compatible with ALD-441)
1,870
ORP-CHR-10037PM
Bib Cock with Wall Flange
  1,830
ORP-CHR-10041PM
2 Way Bib Cock with Wall Flange
2,050
ORP-CHR-10053PM
Angular Stop Cock with Wall Flange
1,060
ORP-CHR-10083KPM
Exposed Part Kit of Concealed Stop Cock & Flush Cock with Fitting Sleeve, Operating Lever & Adjustable Wall 
Flange with Seal (compatible with ALD-083, ALD-089 & ALD-081)
600
PART CODE
Description
 NRP 
OPP-CHR-15001PM
Pillar Cock
1,920
OPP-CHR-15021PM
Pillar Cock with 200mm Extension Body
2,650
OPP-CHR-15433PM
Two Concealed Stop Cocks with Basin Spout (Composite One Piece Body)
4,670
OPP-CHR-15441KPM
Exposed Part Kit of Single Concealed Stop Cock Consisting of Operating Lever, Cartridge Sleeve, Wall Flange 
(with Seals) & Basin Spout (Compatible with ALD-441)
1,870
OPP-CHR-15037PM
Bib Cock with Wall Flange
1,830
OPP-CHR-15041PM
2 Way Bib Cock with Wall Flange
2,050
OPP-CHR-15053PM
Angular Stop Cock with Wall Flange
1,060
OPP-CHR-15083KPM
Exposed Part Kit of Concealed Stop Cock & Flush Cock with Fitting Sleeve, Operating Lever & Adjustable Wall 
Flange with Seal (compatible with ALD-083, ALD-089 & ALD-081)
   600
8
VIGNETTE PRIME
PART CODE
Description
 NRP 
VGP-CHR-81011B
Single Lever Basin Mixer without Popup Waste System with 450mm Long Braided Hoses
4,080
VGP-CHR-81051B
Single Lever Basin Mixer with Popup Waste System & 450mm Long Braided Hoses
5,170
VGP-CHR-81005NB
Single Lever Tall Boy with 180mm Extension Body Fixed Spout without Popup Waste System with 600mm Long 
Braided Hoses
5,410
VGP-CHR-81233NK
Exposed Part Kit of Single Lever Basin Mixer Wall Mounted Consisting of Operating Lever, Cartridge Sleeve, Wall 
Flange, Nipple & Spout (Compatible with ALD-233N & ALD-235N)
3,550
VGP-CHR-81119
Single Lever Wall Mixer with Provision of Hand Shower, But without Hand Shower
5,250
VGP-CHR-81145
Single Lever Exposed Shower Mixer with Provision For Connection to Exposed Shower Pipe (SHA-1211NH & 
SHA-1213) & Hand Shower with Connecting Legs & Wall Flanges
4,970
VGP-CHR-81147
Single Lever Exposed Shower Mixer with Provision For Connection to Exposed Shower Pipe (SHA-1211N) with 
Connecting Legs & Wall Flanges 
4,000
VGP-CHR-81149
Single Lever Exposed Shower Mixer for Connection to Hand Shower with Connecting Legs & Wall Flanges 
4,150
VGP-CHR-81783K
Aquamax Exposed Part Kit of Single Lever Shower Mixer with 3-way diverter (Suitable for ALD-783)
2,350
VGP-CHR-81065NK
Single Lever Exposed Parts Kit of Diverter Consisting of Operating Lever, Wall Flange (with Seals) & Button Only 
(Compatible with Item ALD-065N)
1,320
VGP-CHR-81079NK
Single Lever Exposed Parts Kit of Hi-flow Diverter Consisting of Operating Lever, Cartridge Sleeve, Wall Flange 
(with Seals), Button Assembly Sleeve & Button (Compatible with ALD-079N)
1,710
VGP-CHR-81193K
Single Lever 3-inlet Divertor Exposed parts kit Consisting of Operating Lever, Wall Flange & Button Only (Suitable 
For Item ALD-193)
2,210
VGP-CHR-81227K
Single Lever Exposed Parts Kit of Deusch Mixer Consisting of Operating Lever, Cartridge Sleeve, Wall Flange 
(with Seals), (Compatible with ALD-227 & ALD-229)
1,190
VGP-CHR-81121K
Exposed Parts of Floor Mounted Single Lever Bath Mixer with Provision for Hand Shower, without Hand Shower 
& Shower Hose (Compatible with ALD-121)
37,140
VGP-CHR-81165
Single Lever Sink Mixer with Swinging Spout on Upper Side (Wall Mounted Model) with Connecting Legs & Wall 
Flanges 
4,560
VGP-CHR-81173B
Single Lever Sink Mixer with Swinging Spout (Table Mounted) with 450mm Long Braided Hoses 
3,680
VGP-CHR-81213B
Single Lever 1-Hole Bidet Mixer with Popup Waste System with 375mm Long Braided Hoses
5,170 
VGP-CHR-81001
Pillar Cock
2,160
VGP-CHR-81021N
Pillar Cock with Extension Body
2,660
VGP-CHR-81433
Two Concealed Stop Cocks with Basin Spout (Composite One Piece Body)
4,800
VGP-CHR-81441K
Exposed Part Kit of Single Concealed Stop Cock Consisting of Operating Lever, Cartridge Sleeve, Wall Flange 
(with Seals) & Basin Spout (Compatible with ALD-441)
1,910
VGP-CHR-81421
4-Way Divertor for Concealed Fitting with Built-in Non-Return Valves with Divertor Handle
3,140
VGP-CHR-81037
Bib Cock with Wall Flange
1,830
VGP-CHR-81041
2 Way Bib Cock with Wall Flange
2,140
VGP-CHR-81053
Angular Stop Cock with Wall Flange
1,070
VGP-CHR-81083K
Exposed Part Kit of Concealed Stop Cock & Flush Cock with Fitting Sleeve, Operating Lever & Adjustable Wall 
Flange with Seal (compatible with ALD-083, ALD-089 & ALD-081)
610
ALIVE
PART CODE
Description
 NRP 
ALI-CHR-85011B
Single Lever Basin Mixer without Popup Waste with 450mm Long Braided Hoses
5,320
ALI-CHR-85051B
Single Lever Basin Mixer with Popup Waste with 450mm Long Braided Hoses
6,620
ALI-CHR-85005B
Single Lever Tall Boy with 125mm Extension Body Fixed Spout without Popup Waste System with 600mm Long 
Braided Hoses
6,900
ALI-CHR-85233NK
Exposed Part Kit of Single Lever Basin Mixer Wall Mounted Consisting of Operating Lever, Cartridge Sleeve, Wall 
Flange, Nipple & Spout (Compatible with ALD-233N & ALD-235N)
4,020
ALI-CHR-85119
Single Lever Wall Mixer with Provision of Hand Shower, But W/O Hand Shower
7,740
ALI-CHR-85783K
Aquamax Exposed Part Kit of Single Lever Shower Mixer with 3-way diverter (Suitable for ALD-783)
2,240
ALI-CHR-85065NK
Single Lever Exposed Parts Kit of Diverter Consisting of Operating Lever, Wall Flange (with Seals) & Button Only 
(Compatible with Item ALD-065N)
1,520
ALI-CHR-85079NK
Single Lever Exposed Parts Kit of Hi-flow Diverter Consisting of Operating Lever, Cartridge Sleeve, Wall Flange 
(with Seals), Button Assembly Sleeve & Button (Compatible with ALD-079N)
1,840
ALI-CHR-85193K
Single Lever 3-inlet Divertor Exposed parts kit Consisting of Operating Lever, Wall Flange & Button Only (Suitable 
For Item ALD-193)
1,640
9
D’ARC
PART CODE
Description
 NRP 
DRC-CHR-37011B
Single Lever Basin Mixer without Popup Waste System with 450mm Long Braided Hoses
5,520
DRC-CHR-37051B
Single Lever Basin Mixer with Popup Waste & 450mm Long Braided Hoses
6,560
DRC-CHR-37005B
Single Lever Tall Boy with 140mm Extension Body Fixed Spout without Popup Waste System with 600mm Long 
Braided Hoses
7,920
DRC-CHR-37233NK
Exposed Part Kit of Single Lever Basin Mixer Wall Mounted Consisting of Operating Lever, Cartridge Sleeve, Wall 
Flange, Nipple & Spout (Compatible with ALD-233N & ALD-235N)
3,750
DRC-CHR-37119
Single Lever Wall Mixer With Provision Of Hand Shower, But without Hand Shower
8,080
DRC-CHR-37145
Single Lever Exposed Shower Mixer With Provision For Connection to Exposed Shower Pipe (SHA-1211NH & 
SHA-1213) & Hand Shower  With Connecting Legs & Wall Flanges
5,140
DRC-CHR-37147
Single Lever Exposed Shower Mixer With Provision For Connection to Exposed Shower Pipe (SHA-1211N) With 
Connecting Legs & Wall Flanges 
4,570
DRC-CHR-37149
Single Lever Exposed Shower Mixer for Connection to Hand Shower with Connecting Legs & Wall Flanges 
4,230
DRC-CHR-37055NK
Single Lever Exposed Parts Kit of Diverter Consisting of Operating Lever, Cartridge Sleeve, Wall Flange (with 
Seals) Button Assembly Sleeve & Button (Compatible with ALD-055N)
1,370
DRC-CHR-37079NK
Single Lever Exposed Parts Kit of Hi-flow Diverter Consisting of Operating Lever, Cartridge Sleeve, Wall Flange 
(with Seals), Button Assembly Sleeve & Button (Compatible with ALD-079N)
1,560
DRC-CHR-37193K
Single Lever 3-inlet Divertor Exposed parts kit Consisting of Operating Lever, Wall Flange & Button Only (Suitable 
For Item ALD-193)
1,600
DRC-CHR-37227K
Single Lever Exposed Parts Kit of Deusch Mixer Consisting of Operating Lever, Cartridge Sleeve, Wall Flange 
(with Seals), (Compatible with ALD-227 & ALD-229)
1,330
DRC-CHR-37121K
Exposed Parts of Floor Mounted Single Lever Bath Mixer with Provision for Hand Shower, without Hand Shower 
& Shower Hose (Compatible with ALD-121)
38,940
DRC-CHR-37165
Single Lever Sink Mixer With Swinging Spout on Upper Side (Wall Mounted Model) With Connecting Legs & Wall 
Flanges
 4,870 
DRC-CHR-37001
Pillar Cock
2,050
DRC-CHR-37021
Pillar Cock with 140mm Extension Body
2,830
DRC-CHR-37433
Two Concealed Stop Cocks with Basin Spout (Composite One Piece Body)
4,970
DRC-CHR-37441K
Exposed Part Kit of Single Concealed Stop Cock Consisting of Operating Lever, Cartridge Sleeve, Wall Flange 
(with Seals) & Basin Spout (Compatible with ALD-441)
2,070
DRC-CHR-37421
4-Way Divertor for Concealed Fitting with Built-in Non-Return Valves with Divertor Handle
3,350
DRC-CHR-37309
Sink Mixer with Regular Swinging Spout (Wall Mounted Model) With Connecting Legs & Wall Flanges
4,600
DRC-CHR-37347S
Sink Cock with Regular Swinging Spout (Wall Mounted Model) With Wall Flange
1,780
DRC-CHR-37037
Bib Cock with Wall Flange
1,730
DRC-CHR-37041
2 Way Bib Cock with Wall Flange
1,980
DRC-CHR-37083K
Exposed Part Kit of Concealed Stop Cock & Flush Cock with Fitting Sleeve, Operating Lever & Adjustable Wall 
Flange with Seal (compatible with ALD-083, ALD-089 & ALD-081)
670
PART CODE
Description
 NRP 
ALI-CHR-85227K
Single Lever Exposed Parts Kit of Deusch Mixer Consisting of Operating Lever, Cartridge Sleeve, Wall Flange 
(with Seals), (Compatible with ALD-227 & ALD-229)
1,370
ALI-CHR-85121K
Exposed Parts of Floor Mounted Single Lever Bath Mixer with Provision for Hand Shower, without Hand Shower 
& Shower Hose (Compatible with ALD-121)
38,950
ALI-CHR-85213B
Single Lever 1-Hole Bidet Mixer with Popup Waste System with 375mm Long Braided Hoses
 6,620
ALI-CHR-85001
Pillar Cock
2,300
ALI-CHR-85021
Pillar Cock with 135mm Extension Body
3,490
ALI-CHR-85441K
Exposed Part Kit of Single Concealed Stop Cock Consisting of Operating Lever, Cartridge Sleeve of Wall Flange 
(with Seals) & Basin Spout (Compatible with ALD-441)
2,310
ALI-CHR-85037
Bib Cock with Wall Flange
1,980
ALI-CHR-85041
2 Way Bib Cock with Wall Flange
2,240
ALI-CHR-85053
Angular Stop Cock with Wall Flange
1,380
ALI-CHR-85083K
Exposed Part Kit of Concealed Stop Cock & Flush Cock with Fitting Sleeve, Operating Lever & Adjustable Wall 
Flange with Seal (compatible with ALD-083, ALD-089 & ALD-081)
820
ALIVE
10
LYRIC
PART CODE
Description
 NRP 
LYR-CHR-38001B
Single Lever Basin Mixer without Popup Waste with 450mm Long Braided Hoses
4,060
LYR-CHR-38051B
Single Lever Basin Mixer with Popup Waste & 450mm Long Braided Hoses
4,760
LYR-CHR-38005B
Single Lever Tall Boy with 150mm Extension Body & 600mm Long Braided Hoses
5,060
LYR-CHR-38233NK
Exposed Part Kit of Single Lever Basin Mixer Wall Mounted Consisting of Operating Lever, Cartridge Sleeve, Wall 
Flange, Nipple & Spout (Compatible with ALD-233N & ALD-235N)
3,400
LYR-CHR-38119
Single Lever Wall Mixer with Provision of Hand Shower, But without Hand Shower
5,140
LYR-CHR-38145
Single Lever Exposed Shower Mixer with Provision For Connection to Exposed Shower Pipe (SHA-1211NH & 
SHA-1213) & Hand Shower with Connecting Legs & Wall Flanges
4,840
LYR-CHR-38147
Single Lever Exposed Shower Mixer with Provision For Connection to Exposed Shower Pipe (SHA-1211N) with 
Connecting Legs & Wall Flanges 
3,980
LYR-CHR-38149
Single Lever Exposed Shower Mixer for Connection to Hand Shower with Connecting Legs & Wall Flanges 
3,710
LYR-CHR-38783K
Aquamax Exposed Part Kit of Single Lever Shower Mixer with 3-way diverter (Suitable for ALD-783)
2,210
LYR-CHR-38065NK
Single Lever Exposed Parts Kit of Diverter Consisting of Operating Lever, Wall Flange (with Seals) & Button Only 
(Compatible with Item ALD-065N)
1,250
LYR-CHR-38079NK
Single Lever Exposed Parts Kit of Hi-flow Diverter Consisting of Operating Lever, Cartridge Sleeve, Wall Flange 
(with Seals), Button Assembly Sleeve & Button (Compatible with ALD-079N)
1,780
LYR-CHR-38193K
Single Lever 3-inlet Divertor Exposed parts kit Consisting of Operating Lever, Wall Flange & Button Only (Suitable 
For Item ALD-193)
2,030
LYR-CHR-38227K
Single Lever Exposed Parts Kit of Deusch Mixer Consisting of Operating Lever, Cartridge Sleeve, Wall Flange 
(with Seals), (Compatible with ALD-227 & ALD-229)
1,070
LYR-CHR-38121K
Exposed Parts of Floor Mounted Single Lever Bath Mixer with Provision for Hand Shower, without Hand Shower 
& Shower Hose (Compatible with ALD-121)
38,930
LYR-CHR-38165
Single Lever Sink Mixer with Swinging Spout on Upper Side (Wall Mounted Model) with Connecting Legs & Wall 
Flanges 
4,300
LYR-CHR-38173B
Single Lever Sink Mixer with Swinging Spout (Table Mounted) with 450mm Long Braided Hoses
3,580
LYR-CHR-38011
Pillar Cock
2,120
LYR-CHR-38021
Pillar Cock with 140mm Extension Body
3,180
LYR-CHR-38433
Two Concealed Stop Cocks with Basin Spout (Composite One Piece Body)
4,760
LYR-CHR-38441K
Exposed Part Kit of Single Concealed Stop Cock Consisting of Operating Lever, Cartridge Sleeve, Wall Flange 
(with Seals) & Basin Spout (Compatible with ALD-441)
1,870
LYR-CHR-38421
4-Way Divertor for Concealed Fitting with Built-in Non-Return Valves with Divertor Handle
3,090
LYR-CHR-38309
Sink Mixer with Regular Swinging Spout (Wall Mounted Model) With Connecting Legs & Wall Flanges
4,550
LYR-CHR-38347S
Sink Cock with Regular Swinging Spout (Wall Mounted Model) With Wall Flange
1,780
LYR-CHR-38037
Bib Cock with Wall Flange
1,720
LYR-CHR-38041
2 Way Bib Cock with Wall Flange
1,830
LYR-CHR-38053
Angular Stop Cock with Wall Flange
1,050
LYR-CHR-38083K
Exposed Part Kit of Concealed Stop Cock & Flush Cock with Fitting Sleeve, Operating Lever & Adjustable Wall 
Flange with Seal (compatible with ALD-083, ALD-089 & ALD-081)
580
PART CODE
Description
 NRP 
ARI-CHR-39001B
Single Lever Basin Mixer without Popup Waste with 450mm Long Braided Hoses
4,060
ARI-CHR-39051B
Single Lever Basin Mixer with Popup Waste & 450mm Long Braided Hoses
4,760
ARI-CHR-39005B
Single Lever Tall Boy with 150mm Extension Body & 600mm Long Braided Hoses
5,060
ARI-CHR-39233NK
Exposed Part Kit of Single Lever Basin Mixer Wall Mounted Consisting of Operating Lever, Cartridge Sleeve, Wall 
Flange, Nipple & Spout (Compatible with ALD-233N & ALD-235N)
3,400
ARI-CHR-39119
Single Lever Wall Mixer with Provision of Hand Shower, But without Hand Shower
5,140
ARI-CHR-39145
Single Lever Exposed Shower Mixer with Provision for Connection to Exposed Shower Pipe (SHA-1211NH & 
SHA-1213) & Hand Shower  with Connecting Legs & Wall Flanges
4,840
ARI-CHR-39147
Single Lever Exposed Shower Mixer with Provision for Connection to Exposed Shower Pipe (SHA-1211N) with 
Connecting Legs & Wall Flanges
3,980
ARI-CHR-39149
Single Lever Exposed Shower Mixer for Connection to Hand Shower with Connecting Legs & Wall Flanges 
3,710
ARI-CHR-39783K
Aquamax Exposed Part Kit of Single Lever Shower Mixer with 3-way diverter (Suitable for ALD-783)
2,210
ARI-CHR-39065NK
Single Lever Exposed Parts Kit of Diverter Consisting of Operating Lever, Wall Flange (with Seals) & Button Only 
(Compatible with Item ALD-065N)
1,250
ARIA
11
ARIA
PART CODE
Description
 NRP 
FON-CHR-40023B
Single Lever Extended Basin Mixer (Height-95mm) without Popup Waste System with 450mm Long Braided 
Hoses
4,230
FON-CHR-40052B
Single Lever Extended Basin Mixer (Height-95mm) with Popup Waste System with 450mm Long Braided Hoses
4,730
FON-CHR-40005B
Single Lever Tall Boy with 150mm Extension Body & 600mm Long Braided Hoses
5,060
FON-CHR-40233NK
Exposed Part Kit of Single Lever Basin Mixer Wall Mounted Consisting of Operating Lever, Cartridge Sleeve, Wall 
Flange, Nipple & Spout (Compatible with ALD-233N & ALD-235N)
3,590
FON-CHR-40119
Single Lever Wall Mixer with Provision of Hand Shower, But without Hand Shower
5,330
FON-CHR-40145
Single Lever Exposed Shower Mixer With Provision For Connection to Exposed Shower Pipe (SHA-1211NH & 
SHA-1213) & Hand Shower With Connecting Legs & Wall Flanges
4,840
FON-CHR-40147
Single Lever Exposed Shower Mixer With Provision For Connection to Exposed Shower Pipe (SHA-1211N) With 
Connecting Legs & Wall Flanges 
3,980
FON-CHR-40149
Single Lever Exposed Shower Mixer for Connection to Hand Shower with Connecting Legs & Wall Flanges 
3,780
FON-CHR-40055NK
Single Lever Exposed Parts Kit of Diverter Consisting of Operating Lever, Cartridge Sleeve, Wall Flange (with 
Seals) Button Assembly Sleeve & Button (Compatible with ALD-055N)
1,210
FON-CHR-40079NK
Single Lever Exposed Parts Kit of Hi-flow Diverter Consisting of Operating Lever, Cartridge Sleeve, Wall Flange 
(with Seals), Button Assembly Sleeve & Button (Compatible with ALD-079N)
1,810
FON-CHR-40193K
Single Lever 3-inlet Divertor Exposed parts kit Consisting of Operating Lever, Wall Flange & Button Only (Suitable 
For Item ALD-193)
1,790
FON-CHR-40227K
Single Lever Exposed Parts Kit of Deusch Mixer Consisting of Operating Lever, Cartridge Sleeve, Wall Flange 
(with Seals), (Compatible with ALD-227 & ALD-229)
1,070
FON-CHR-40121K
Exposed Parts of Floor Mounted Single Lever Bath Mixer with Provision for Hand Shower, without Hand Shower 
& Shower Hose (Compatible with ALD-121)
37,110
FON-CHR-40165
Single Lever Sink Mixer with Swinging Spout on Upper Side (Wall Mounted Model) with Connecting Legs & Wall 
Flanges 
4,540
FON-CHR-40173B
Single Lever Sink Mixer with Swinging Spout (Table Mounted Model) with 450mm Long Braided Hoses
3,580
FON-CHR-40011
Pillar Cock
2,130
FON-CHR-40021
Pillar Cock with 140mm Extension Body
2,520
FONTE
PART CODE
Description
 NRP 
ARI-CHR-39079NK
Single Lever Exposed Parts Kit of Hi-flow Diverter Consisting of Operating Lever, Cartridge Sleeve, Wall Flange 
(with Seals), Button Assembly Sleeve & Button (Compatible with ALD-079N)
1,780
ARI-CHR-39193K
Single Lever 3-inlet Divertor Exposed parts kit Consisting of Operating Lever, Wall Flange & Button Only (Suitable 
For Item ALD-193)
2,030
ARI-CHR-39227K
Single Lever Exposed Parts Kit of Deusch Mixer Consisting of Operating Lever, Cartridge Sleeve, Wall Flange 
(with Seals), (Compatible with ALD-227 & ALD-229)
1,070
ARI-CHR-39121K
Exposed Parts of Floor Mounted Single Lever Bath Mixer with Provision for Hand Shower, without Hand Shower 
& Shower Hose (Compatible with ALD-121)
38,930
ARI-CHR-39165
Single Lever Sink Mixer with Swinging Spout on Upper Side (Wall Mounted Model) with Connecting Legs & Wall 
Flanges
4,300
ARI-CHR-39173B
Single Lever Sink Mixer with Swinging Spout (Table Mounted) with 450mm Long Braided Hoses
3,580
ARI-CHR-39011
Pillar Cock
2,120
ARI-CHR-39021
Pillar Cock with 140mm Extension Body
3,180
ARI-CHR-39433
Two Concealed Stop Cocks with Basin Spout (Composite One Piece Body)
4,760
ARI-CHR-39441K
Exposed Part Kit of Single Concealed Stop Cock Consisting of Operating Lever, Cartridge Sleeve, Wall Flange 
(with Seals) & Basin Spout (Compatible with ALD-441)
1,870
ARI-CHR-39421
4-Way Divertor for Concealed Fitting with Built-in Non-Return Valves with Divertor Handle
3,090
ARI-CHR-39309
Sink Mixer with Regular Swinging Spout (Wall Mounted Model) With Connecting Legs & Wall Flanges
4,550
ARI-CHR-39347S
Sink Cock with Regular Swinging Spout (Wall Mounted Model) With Wall Flange
1,780
ARI-CHR-39037
Bib Cock with Wall Flange
1,720
ARI-CHR-39041
Two Way Bib Cock with Wall Flange
1,830
ARI-CHR-39053
Angular Stop Cock with Wall Flange
1,050
ARI-CHR-39083K
Exposed Part Kit of Concealed Stop Cock & Flush Cock with Fitting Sleeve, Operating Lever & Adjustable Wall 
Flange with Seal (compatible with ALD-083, ALD-089 & ALD-081)
580
12
PART CODE
Description
 NRP 
FUS-CHR-29023B
Single Lever Extended Basin Mixer (Height-85mm) without Popup Waste System with 450mm Long Braided 
Hoses
4,220
FUS-CHR-29052B
Single Lever Extended Basin Mixer (Height-85mm) with Popup Waste System with 450mm Long Braided Hoses
5,370
FUS-CHR-29005NB
Single Lever Tall Boy with 150mm Extension Body Fixed Spout without Popup Waste System with 600mm Long 
Braided Hoses
5,210
FUS-CHR-29231NK
Exposed Parts kit of Single Lever Basin Mixer Wall Mounted Consisting of Operating Lever, Cartridge Sleeve, 
Nipple, Spout & Two Wall Flanges (Compatible with ALD-233NPSO & ALD-235NPSO)
2,350
FUS-CHR-29233NK
Exposed Part Kit of Single Lever Basin Mixer Wall Mounted Consisting of Operating Lever, Cartridge Sleeve, Wall 
Flange, Nipple & Spout (Compatible with ALD-233N & ALD-235N)
2,820
FUS-CHR-29119
Single Lever Wall Mixer with Provision of Hand Shower, But without Hand Shower
5,620
FUS-CHR-29145
Single Lever Exposed Shower Mixer with Provision For Connection to Exposed Shower Pipe (SHA-1211NH & 
SHA-1213) & Hand Shower with Connecting Legs & Wall Flanges
4,860
FUS-CHR-29147
Single Lever Exposed Shower Mixer with Provision For Connection to Exposed Shower Pipe (SHA-1211N) with 
Connecting Legs & Wall Flanges 
4,000
FUS-CHR-29149
Single Lever Exposed Shower Mixer for Connection to Hand Shower with Connecting Legs & Wall Flanges 
3,960
FUS-CHR-29135
Single Lever High Flow Bath Filler (Concealed Body) Wall Mounted Model with Bath Spout (Composite One Piece 
Body)
6,860
FUS-CHR-29137
Single Lever High Flow Bath & Shower Mixer (Concealed Body) Wall Mounted Model with Button Spout 
(Composite One Piece Body)
7,360
FUS-CHR-29783K
Aquamax Exposed Part Kit of Single Lever Shower Mixer with 3-way diverter (Suitable for ALD-783)
2,130
FUS-CHR-29065NK
Single Lever Exposed Parts Kit of Diverter Consisting of Operating Lever, Wall Flange (with Seals) & Button Only 
(Compatible with Item ALD-065N)
1,250
FUS-CHR-29075K
Single Lever Exposed Parts Kit of Divertor Consisting of Operating Lever, Wall Flange (with Seals) & Button Only 
(Suitable For Item ALD-075)
1,200
FUS-CHR-29079NK
Single Lever Exposed Parts Kit of Hi-flow Diverter Consisting of Operating Lever, Cartridge Sleeve, Wall Flange 
(with Seals), Button Assembly Sleeve & Button (Compatible with ALD-079N)
1,790
FUS-CHR-29193K
Single Lever 3-inlet Divertor Exposed parts kit Consisting of Operating Lever, Wall Flange & Button Only (Suitable 
For Item ALD-193)
2,100
FUS-CHR-29139
Single Lever Concealed Shower Mixer For Connection To Overhead Shower only 
3,750
FUS-CHR-29227K
Single Lever Exposed Parts Kit of Deusch Mixer Consisting of Operating Lever, Cartridge Sleeve, Wall Flange 
(with Seals), (Compatible with ALD-227 & ALD-229)
1,020
FUS-CHR-29121K
Exposed Parts of Floor Mounted Single Lever Bath Mixer with Provision for Hand Shower, without Hand Shower 
& Shower Hose (Compatible with ALD-121)
37,060
FUS-CHR-29163
Single Lever Sink Mixer Swinging Spout (Wall Mounted Model) with Connecting Legs & Wall Flanges 
4,660
FUS-CHR-29165
Single Lever Sink Mixer with Swinging Spout on Upper Side (Wall Mounted Model) with Connecting Legs & Wall 
Flanges 
4,510
FUS-CHR-29009B
Single Lever Sink Mixer with 210mm Extension Body Swinging Spout without popup Waste (Table Mounted) with 
600mm Long Braided Hoses
4,400
FUS-CHR-29173B
Single Lever Sink Mixer with Swinging Spout (Table Mounted Model) with 450mm Long Braided Hoses
3,710
FUS-CHR-29213B
Single Lever 1-Hole Bidet Mixer with Popup Waste System with 375mm Long Braided Hoses
5,040
FUS-CHR-29001
Pillar Cock
1,980
FUS-CHR-29021N
Pillar Cock with Extension Body
2,600
FUSION
FONTE
FON-CHR-40433
Two Concealed Stop Cocks with Basin Spout (Composite One Piece Body)
4,780
FON-CHR-40441K
Exposed Part Kit of Single Concealed Stop Cock Consisting of Operating Lever, Cartridge Sleeve, Wall Flange 
(with Seals) & Basin Spout (Compatible with ALD-441)
1,870
FON-CHR-40427
Concealed 4-Way Divertor Set with Hot & Cold Concealed Stop Cock with Built-in Non-Return Valves 
(Composite One Piece Body) 
6,410
FON-CHR-40421
4-Way Divertor for Concealed Fitting with Built-in Non-Return Valves with Divertor Handle
3,090
FON-CHR-40037
Bib Cock with Wall Flange
1,680
FON-CHR-40041
2 Way Bib Cock with Wall Flange
1,830
FON-CHR-40053
Angular Stop Cock with Wall Flange
1,050
FON-CHR-40083K
Exposed Part Kit of Concealed Stop Cock & Flush Cock with Fitting Sleeve, Operating Lever & Adjustable Wall 
Flange with Seal (compatible with ALD-083, ALD-089 & ALD-081)
580
13
PART CODE
Description
 NRP 
SOL-CHR-6001B
Single Lever Basin Mixer without Popup Waste System with 450mm Long Braided Hoses
3,710
SOL-CHR-6051B
Single Lever Basin Mixer with Popup Waste System & 450mm Long Braided Hoses 
4,720
SOL-CHR-6231NK
Exposed Parts kit of Single Lever Basin Mixer Wall Mounted Consisting of Operating Lever, Cartridge Sleeve, 
Nipple, Spout & Two Wall Flanges (Compatible with ALD-233NPSO & ALD-235NPSO)
2,610
SOL-CHR-6233NK
Exposed Part Kit of Single Lever Basin Mixer Wall Mounted Consisting of Operating Lever, Cartridge Sleeve, Wall 
Flange, Nipple & Spout (Compatible with ALD-233N & ALD-235N)
2,950
SOL-CHR-6119
Single Lever Wall Mixer with Provision of Hand Shower, But without Hand Shower
4,770
SOL-CHR-6145
Single Lever Exposed Shower Mixer with Provision For Connection to Exposed Shower Pipe (SHA-1211NH & 
SHA-1213) & Hand Shower with Connecting Legs & Wall Flanges
4,700
SOL-CHR-6147
Single Lever Exposed Shower Mixer with Provision For Connection to Exposed Shower Pipe (SHA-1211N) with 
Connecting Legs & Wall Flanges 
3,920
SOL-CHR-6149
Single Lever Exposed Shower Mixer for Connection to Hand Shower with Connecting Legs & Wall Flanges 
3,830
SOL-CHR-6135
Single Lever High Flow Bath Filler (Concealed Body) Wall Mounted Model with Bath Spout (Composite One Piece 
Body)
6,790
SOL-CHR-6137
Single Lever High Flow Bath & Shower Mixer (Concealed Body) Wall Mounted Model with Button Spout 
(Composite One Piece Body)
7,260
SOL-CHR-6065NK
Single Lever Exposed Parts Kit of Diverter Consisting of Operating Lever, Wall Flange (with Seals) & Button Only 
(Compatible with Item ALD-065N)
1,450
SOL-CHR-6075K
Single Lever Exposed Parts Kit of Divertor Consisting of Operating Lever, Wall Flange (with Seals) & Button Only 
(Suitable For Item ALD-075)
1,460
SOL-CHR-6079NK
Single Lever Exposed Parts Kit of Hi-flow Diverter Consisting of Operating Lever, Cartridge Sleeve, Wall Flange 
(with Seals), Button Assembly Sleeve & Button (Compatible with ALD-079N)
1,760
SOL-CHR-6193K
Single Lever 3-inlet Divertor Exposed parts kit Consisting of Operating Lever, Wall Flange & Button Only (Suitable 
For Item ALD-193)
1,800
SOL-CHR-6139
Single Lever Concealed Shower Mixer For Connection To Overhead Shower only 
3,600
SOL-CHR-6227K
Single Lever Exposed Parts Kit of Deusch Mixer Consisting of Operating Lever, Cartridge Sleeve, Wall Flange 
(with Seals), (Compatible with ALD-227 & ALD-229)
1,300
SOL-CHR-6121K
Exposed Parts of Floor Mounted Single Lever Bath Mixer with Provision for Hand Shower, without Hand Shower 
& Shower Hose (Compatible with ALD-121)
37,270
SOL-CHR-6163
Single Lever Sink Mixer Swinging Spout (Wall Mounted Model) with Connecting Legs & Wall Flanges 
4,530
SOL-CHR-6165
Single Lever Sink Mixer with Swinging Spout on Upper Side (Wall Mounted Model) with Connecting Legs & Wall 
Flanges 
4,670
SOL-CHR-6173B
Single Lever Sink Mixer with Swinging Spout (Table Mounted) with 450mm Long Braided Hoses
3,600
SOL-CHR-6011
Pillar Cock
1,870
SOL-CHR-6021
Pillar Cock with 200mm Extension Body
2,490
FUSION
SOLO
PART CODE
Description
 NRP 
FUS-CHR-29433
Two Concealed Stop Cocks with Basin Spout (Composite One Piece Body)
4,230
FUS-CHR-29441K
Exposed Part Kit of Single Concealed Stop Cock Consisting of Operating Lever, Cartridge Sleeve, Wall Flange 
(with Seals) & Basin Spout (Compatible with ALD-441)
1,370
FUS-CHR-29267
Wall Mixer with Connector for Hand Shower arrangement with Connecting Legs, Wall Flanges & Wall Bracket for 
Hand Shower
5,940
FUS-CHR-29273UPR
Wall Mixer with Provision For Overhead Shower with 115mm Long Bend Pipe On Upper Side, Connecting Legs 
& Wall Flanges
5,990
FUS-CHR-29281
Wall Mixer 3-in-1 System with Provision for both Hand Shower and Overhead Shower Complete with 115mm 
Long Bend Pipe, Connecting Legs & Wall Flange (without Hand & Overhead Shower)
6,330
FUS-CHR-29427
Concealed 4-Way Divertor Set with Hot & Cold Concealed Stop Cock with Built-in Non-Return Valves 
(Composite One Piece Body) 
6,290
FUS-CHR-29421
4-Way Divertor for Concealed Fitting with Built-in Non-Return Valves with Divertor Handle
3,100
FUS-CHR-29037
Bib Cock with Wall Flange
1,870
FUS-CHR-29041
2-way Bib Cock with Wall Flange
2,320
FUS-CHR-29053
Angular Stop Cock with Wall Flange
1,340
FUS-CHR-29083K
Exposed Part Kit of Concealed Stop Cock & Flush Cock with Fitting Sleeve, Operating Lever & Adjustable Wall 
Flange with Seal (compatible with ALD-083, ALD-089 & ALD-081)
580
14
PART CODE
Description
 NRP 
QQT-CHR-7011
Pillar Cock
2,150
QQT-CHR-7167B
Central Hole Basin Mixer with Regular Spout without Popup Waste System with 450mm Long Braided Hoses
4,890
QQT-CHR-7169B
Central Hole Basin Mixer with Regular Spout with Popup Waste System with 450mm Long Braided Hoses
5,940
QQT-CHR-7189
3-Hole Basin Mixer without Popup Waste System
6,000
QQT-CHR-7191
3-Hole Basin Mixer with Popup Waste System
6,990
QQT-CHR-7217
Wall Mixer with Telephone Shower Arrangement, Connecting Legs & Wall Flanges but without Crutch & 
Telephone Shower
6,090
QQT-CHR-7267
Wall Mixer with Connector for Hand Shower arrangement with Connecting Legs, Wall Flanges & Wall Bracket for 
Hand Shower
6,530
QQT-CHR-7273UPR
Wall Mixer with Provision For Overhead Shower with 115mm Long Bend Pipe On Upper Side, Connecting Legs 
& Wall Flanges
6,650
QQT-CHR-7281
Wall Mixer 3-in-1 System with Provision for both Hand Shower and Overhead Shower Complete with 115mm 
Long Bend Pipe, Connecting Legs & Wall Flange (without Hand & Overhead Shower)
7,140
QQT-CHR-7215
Exposed Wall Mixer with Provision Only for Overhead Shower & Hand Shower with Connecting Legs & Wall 
Flanges
5,210
QQT-CHR-7209
Shower Mixer for Shower Cubicles (Wall Mounted) with Connecting Legs & Flanges
4,290
QUEEN’S
SOLO
SOL-CHR-6167B
Central Hole Basin Mixer without Popup Waste System with 450mm Long Braided Hoses (15mm Cartridge Size)
3,500
SOL-CHR-6169B
Central Hole Basin Mixer with Popup Waste System with 450mm Long  Braided Hoses (15mm Cartridge Size)
4,460
SOL-CHR-6189
3-Hole Basin Mixer without Popup Waste System, 15mm Cartridge Size
5,290
SOL-CHR-6191
3-Hole Basin Mixer with Popup Waste System, 15mm Cartridge Size
6,250
SOL-CHR-6433
Two Concealed Stop Cocks with Basin Spout (Composite One Piece Body)
4,380
SOL-CHR-6441K
Exposed Part Kit of Single Concealed Stop Cock Consisting of Operating Lever, Cartridge Sleeve, Wall Flange 
(with Seals) & Basin Spout (Compatible with ALD-441)
1,520
SOL-CHR-6217
Wall Mixer with Telephone Shower Arrangement, Connecting Legs & Wall Flanges but without Crutch & 
Telephone Shower
5,710
SOL-CHR-6219
Wall Mixer Non-Telephonic Shower Arrangement with Connecting Legs & Wall Flanges
5,100
SOL-CHR-6267
Wall Mixer with Connector For Hand Shower Arrangement with Connecting Legs, Wall Flanges & Wall Bracket 
For Hand Shower
6,120
SOL-CHR-6273UPR
Wall Mixer with Provision For Overhead Shower with 115mm Long Bend Pipe On Upper Side, Connecting Legs 
& Wall Flanges
6,280
SOL-CHR-6281
Wall Mixer 3-in-1 System with Provision for both Hand Shower and Overhead Shower Complete with 115mm 
Long Bend Pipe, Connecting Legs & Wall Flange (without Hand & Overhead Shower)
6,950
SOL-CHR-6215
Exposed Wall Mixer with Provision for Overhead Shower & Hand Shower with Connecting Legs & Wall Flanges
4,730
SOL-CHR-6431
Two Concealed Stop Cocks (Composite One Piece Body)
3,800
SOL-CHR-6435
Two Concealed Stop Cocks with Bath Spout (Composite One Piece Body)
5,070
SOL-CHR-6437
Two Concealed Stop Cocks with Bath Spout Button attachment (Composite One Piece Body)
5,460
SOL-CHR-6421
4-Way Divertor for Concealed Fitting with  Built-in Non-Return Valves with Divertor Handle
3,030
SOL-CHR-6095
Bath Tub Filler Consisting of 2 Control Cocks and One Spout, 20mm Cartridge Size
5,930
SOL-CHR-6271
Bath Tub Mixer (Exposed Adjustable Legs) with Telephone Shower Arrangement & Crutch
7,440
SOL-CHR-6309
Sink Mixer with Swinging Casted Spout (Wall Mounted Model) with Connecting Legs & Wall Flanges
4,560
SOL-CHR-6319B
Sink Mixer with Swinging Spout (Table Mounted Model) with 450mm Long Braided Hoses
3,840
SOL-CHR-6347
Sink Cock with Swinging Spout (Wall Mounted Model) with Wall Flange
2,180
SOL-CHR-6357
Sink Cock with Regular Swinging Spout (Table Mounted Model) 
2,360
SOL-CHR-6359
Sink Cock (Table Mounted) with Angular Knob
2,610
SOL-CHR-6613B
1 - Hole Bidet Mixer with Popup Waste System with 375mm Long Braided Hoses
4,750
SOL-CHR-6037
Bib Cock (Angular Shape) with Wall Flange
1,680
SOL-CHR-6047
Bib Cock (Straight Line Model) with Wall Flange
1,660
SOL-CHR-6041
2 Way Bib Cock with Wall Flange
2,340
SOL-CHR-6053
Angular Stop Cock with Flange
1,450
SOL-CHR-6083K
Exposed Part Kit of Concealed Stop Cock & Flush Cock with Fitting Sleeve, Operating Lever & Adjustable Wall 
Flange with Seal (compatible with ALD-083, ALD-089 & ALD-081)
710
15
PART CODE
Description
 NRP 
FLR-CHR-5001B
Single Lever Basin Mixer without Popup Waste System with 450mm Long Braided Hoses
3,300
FLR-CHR-5003B
Single Lever Basin Mixer (Small Spout) without Popup Waste System with 450mm Long Braided Hoses
2,940
FLR-CHR-5025B
Single Lever Mini Basin Mixer without Popup Waste System with 450mm Long Braided Hoses
3,710
FLR-CHR-5051B
Single Lever Basin Mixer with Popup Waste System & 450mm Long Braided Hoses
4,000
FLR-CHR-5063B
Single Lever Basin Mixer (Small Spout) with Popup Waste System with 450mm Long Braided Hoses
3,630
FLR-CHR-5005NB
Single Lever Tall Boy with 150mm Extension Body Fixed Spout without Popup Waste System with 600mm Long 
Braided Hoses
4,560
FLR-CHR-5231NK
Exposed Parts kit of Single Lever Basin Mixer Wall Mounted Consisting of Operating Lever, Cartridge Sleeve, 
Nipple, Spout & Two Wall Flanges (Compatible with ALD-233NPSO & ALD-235NPSO)
2,390
FLR-CHR-5233NK
Exposed Part Kit of Single Lever Basin Mixer Wall Mounted Consisting of Operating Lever, Cartridge Sleeve, Wall 
Flange, Nipple & Spout (Compatible with ALD-233N & ALD-235N)
2,880
FLR-CHR-5119
Single Lever Wall Mixer with Provision of Hand Shower, But without Hand Shower
4,630
FLR-CHR-5123
Single Lever Bath & Shower Mixer (High Flow) (Wall Mounted Model) with Provision of Hand Shower, But without 
Hand Shower
5,670
FLR-CHR-5143
Single Lever Wall Mixer with Provision for Overhead Shower with 150 X 150mm Long Bend Pipe on Lower Side, 
Connecting Legs & Wall Flanges
5,500
FLR-CHR-5145
Single Lever Exposed Shower Mixer with Provision for Connection to Exposed Shower Pipe (SHA-1211NH & 
SHA-1213) & Hand Shower with Connecting Legs & Wall Flanges
4,630
FLR-CHR-5147
Single Lever Exposed Shower Mixer with Provision for Connection to Exposed Shower Pipe (SHA-1211N) with 
Connecting Legs & Wall Flanges 
3,830
FLR-CHR-5149
Single Lever Exposed Shower Mixer for Connection to Hand Shower with Connecting Legs & Wall Flanges 
3,490
FLR-CHR-5135
Single Lever High Flow Bath Filler (Concealed Body) Wall Mounted Model with Bath Spout (Composite One Piece Body)
6,670
FLR-CHR-5137
Single Lever High Flow Bath & Shower Mixer (Concealed Body) Wall Mounted Model with Button Spout (Composite One 
Piece Body)
7,170
FLR-CHR-5783K
Aquamax Exposed Part Kit of Single Lever Shower Mixer with 3-way diverter (Suitable for ALD-783)
2,090
FLR-CHR-5065NK
Single Lever Exposed Parts Kit of Diverter Consisting of Operating Lever, Wall Flange (with Seals) & Button Only 
(Compatible with Item ALD-065N)
1,150
FLR-CHR-5075K
Single Lever Exposed Parts Kit of Divertor Consisting of Operating Lever, Wall Flange (with Seals) & Button Only (Suitable 
for Item ALD-075)
1,140
FLR-CHR-5079NK
Single Lever Exposed Parts Kit of Hi-flow Diverter Consisting of Operating Lever, Cartridge Sleeve, Wall Flange (with 
Seals), Button Assembly Sleeve & Button (Compatible with ALD-079N)
1,750
FLR-CHR-5193K
Single Lever 3-inlet Divertor Exposed parts kit Consisting of Operating Lever, Wall Flange & Button Only (Suitable for Item 
ALD-193)
1,580
FLR-CHR-5139
Single Lever Concealed Shower Mixer for Connection To Overhead Shower only 
3,530
QUEEN’S
FLORENTINE
PART CODE
Description
 NRP 
QQT-CHR-7219
Wall Mixer Non-Telephonic Shower Arrangement with Connecting Legs & Wall Flanges
5,300
QQT-CHR-7421
4-Way Divertor for Concealed Fitting with Built-in Non-Return Valves with Divertor Handle
3,400
QQT-CHR-7095
Bath Tub Filler Consisting of 2 Control Cocks and One Spout
7,230
QQT-CHR-7271
Bath Tub Mixer (Exposed Straight Legs) with Telephone Shower Arrangement & Crutch (without Hand Shower 
and Shower Hose)
8,360
QQT-CHR-7271HL
Bath and Shower Mixer with Telephonic Shower Crutch and 950mm High Rise Legs (without Shower & Shower 
Hose)
17,340
QQT-CHR-7277
4-Hole Bath Tub Mixer consisting of 2 No. Control Cocks, 1 Spout, 1 Telephone Shower with 8mm Dia. & 1.5M 
Long Flexible Tube
9,650
QQT-CHR-7309
Sink Mixer with Regular Swinging Spout (Wall Mounted Model) with Connecting Legs & Wall Flanges
5,200
QQT-CHR-7319B
Sink Mixer, 1-Hole with Regular Spout (Table Mounted Model) with 450mm Long Braided Hoses
5,240
QQT-CHR-7347
Sink Cock with Regular Swinging Spout (Wall Mounted Model) with Wall Flange
2,870
QQT-CHR-7613B
1 - Hole Bidet Mixer with Popup Waste System with 375mm Long Braided Hoses
 6,190
QQT-CHR-7037
Bib Cock with Wall Flange
2,050
QQT-CHR-7041
2-Way Bib Cock with Wall Flange
2,600
QQT-CHR-7053
Angular Stop Cock with Wall Flange
1,600
QQT-CHR-7083K
Exposed Part Kit of Concealed Stop Cock & Flush Cock with Fitting Sleeve, Operating Lever & Adjustable Wall 
Flange with Seal (compatible with ALD-083, ALD-089 & ALD-081)
860
16
FLORENTINE
FLR-CHR-5227K
Single Lever Exposed Parts Kit of Deusch Mixer Consisting of Operating Lever, Cartridge Sleeve, Wall Flange (with Seals), 
(Compatible with ALD-227 & ALD-229)
1,050
FLR-CHR-5121K
Exposed Parts of Floor Mounted Single Lever Bath Mixer with Provision for Hand Shower, without Hand Shower & 
Shower Hose (Compatible with ALD-121)
34,920
FLR-CHR-5105B
Single Lever 1- Hole Bath & Shower Mixer (High Flow) Tub Mounted with Concealed Provision for Connection to Hand 
Shower with 450mm Long Braided Hoses
8,380
FLR-CHR-5107B
Single Lever 1- Hole Bath & Shower Mixer (High Flow) Tub Mounted with Exposed Provision for Connection to Hand 
Shower with 450mm Long Braided Hoses
6,130
FLR-CHR-5133
Single Lever Bath Tub Mixer (High Flow) with Hand Shower Arrangement with Exposed Straight Legs
6,820
FLR-CHR-5163
Single Lever Sink Mixer Swinging Spout (Wall Mounted Model) with Connecting Legs & Wall Flanges 
4,190
FLR-CHR-5165
Single Lever Sink Mixer with Swinging Spout on Upper Side (Wall Mounted Model) with Connecting Legs & Wall Flanges 
4,480
FLR-CHR-5007B
Single Lever Sink Mixer with 170mm Extension Body Swinging Spout without Popup Waste (Table Mounted) with 
600mm Long Braided Hoses
4,270
FLR-CHR-5009B
Single Lever Sink Mixer with 210mm Extension Body Swinging Spout without Popup Waste (Table Mounted) with 
600mm Long Braided Hoses
4,360
FLR-CHR-5173B
Single Lever Sink Mixer with Swinging Spout (Table Mounted Model) with 450mm Long Braided Hoses
3,270
FLR-CHR-5177B
Single Lever Sink Mixer (Table Mounted) with Extractable Hand Shower Dual Flow Complete with 1.2m Long Tube with 
450mm Long Braided Hoses
5,150
FLR-CHR-5179B
Side Single Lever Sink Mixer with Swinging Spout (Table Mounted) with 450mm Long Braided Hoses
4,460
FLR-CHR-5213B
Single Lever 1 - Hole Bidet Mixer with Popup Waste System with 375mm Long Braided Hoses
4,000
FLR-CHR-5011N
Pillar Cock
1,670
FLR-CHR-5015
Pillar Cock with Lift Type Operating Knob & Base Flange
1,760
FLR-CHR-5021M
Pillar Cock with Extension Body
2,230
FLR-CHR-5167NB
Central Hole Basin Mixer with Regular Spout without Popup Waste System with 450mm Long Braided Hoses, 20mm 
Cartridge Size
3,550
FLR-CHR-5169NB
Central Hole Basin Mixer with Round Spout with Popup Waste System with 450mm Long Braided Hoses, 20mm 
Cartridge Size
4,460
FLR-CHR-5189N
3-Hole Basin Mixer without Popup Waste System, 20mm Cartridge Size
4,960
FLR-CHR-5191N
3-Hole Basin Mixer with Popup Waste System, 20mm Cartridge Size
5,780
FLR-CHR-5433N
Two Concealed Stop Cocks with Basin Spout (Composite One Piece Body)
4,020
FLR-CHR-5441NK
Exposed Part Kit of Single Concealed Stop Cock Consisting of Operating Lever, Cartridge Sleeve, Wall Flange (with 
Seals) & Basin Spout (Compatible with ALD-441)
1,310
FLR-CHR-5217N
Wall Mixer with Telephone Shower Arrangement, Connecting Legs & Wall Flanges but without Crutch & Telephone 
Shower
5,410
FLR-CHR-5219N
Wall Mixer Non-Telephonic Shower Arrangement with Connecting Legs & Wall Flanges
4,470
FLR-CHR-5267N
Wall Mixer with Connector for Hand Shower arrangement with Connecting Legs, Wall Flanges & Wall Bracket for Hand 
Shower
5,820
FLR-CHR-5273UPR
Wall Mixer with Provision for Overhead Shower with 115mm Long Bend Pipe On Upper Side, Connecting Legs & Wall 
Flanges
5,940
FLR-CHR-5281N
Wall Mixer 3-in-1 System with Provision for both Hand Shower and Overhead Shower Complete with 115mm Long 
Bend Pipe, Connecting Legs & Wall Flange (without Hand & Overhead Shower)
6,280
FLR-CHR-5215N
Exposed Wall Mixer with Provision Only for Overhead Shower & Hand Shower with Connecting Legs & Wall Flanges
4,360
FLR-CHR-5431N
Two Concealed Stop Cocks (Composite One Piece Body)
3,320
FLR-CHR-5435N
Two Concealed Stop Cocks with Bath Spout (Composite One Piece Body)
4,710
FLR-CHR-5437N
Two Concealed Stop Cocks with Bath Spout Button attachment (Composite One Piece Body)
5,100
FLR-CHR-5427N
Concealed 4-Way Divertor Set with Hot & Cold Concealed Stop Cock with Built-in Non-Return Valves (Composite One 
Piece Body) 
5,960
FLR-CHR-5421N
4-Way Divertor for Concealed Fitting with Built-in Non-Return Valves with Divertor Handle
3,000
FLR-CHR-5095N
Bath Tub Filler Consisting of 2 Control Cocks and one Spout, 20mm Cartridge Size
5,870
FLR-CHR-5271N
Bath Tub Mixer (Exposed Adjustable Legs) with Telephone Shower Arrangement & Crutch
7,130
FLR-CHR-5309N
Sink Mixer with Regular Swinging Spout (Wall Mounted Model) with Connecting Legs & Wall Flanges
4,160
FLR-CHR-5309ND
Sink Mixer with Extended Swinging Spout (Wall Mounted Model) with Connecting Legs & Wall Flanges
4,360
FLR-CHR-5319NB
Sink Mixer, 1-Hole with Swinging Extended Spout (Table Mounted Model) with 450mm Long Braided Hoses
3,800
FLR-CHR-5347N
Sink Cock with Regular Swinging Spout (Wall Mounted Model) with Wall Flange
1,950
FLR-CHR-5347SD
Sink Cock with Extended Swinging Spout (Wall Mounted Model) with Wall Flange
2,410
FLR-CHR-5357N
Sink Cock with Regular Swinging Spout (Table Mounted Model) 
2,180
FLR-CHR-5357SD
Sink Cock with Extended Swinging Spout (Table Mounted Model)
2,580
FLR-CHR-5355N
Sink Cock with Provision for Connection to RO from rear side & Swinging Spout
4,050
FLR-CHR-5359N
Sink Cock (Table Mounted) with Angular Knob
2,300
17
FLORENTINE
CLARION
PART CODE
Description
 NRP 
CQT-CHR-23167B
Central Hole Basin Mixer without Popup Waste System with 450mm Long Braided Hoses
2,960
CQT-CHR-23169B
Central Hole Basin Mixer with Popup Waste System with 450mm Long Braided Hoses
3,900
CQT-CHR-23011
Pillar Cock
1,170
CQT-CHR-23021
Pillar Cock with Long Neck
1,480
CQT-CHR-23123
Swan Neck Tap with Left Hand Operating Knob
2,020
CQT-CHR-23127
Swan Neck Tap with Right Hand Operating Knob
2,020
CQT-CHR-23219
Wall Mixer Non-Telephonic Shower Arrangement with Connecting Legs & Wall Flanges
3,090
CQT-CHR-23217UPR
Wall Mixer with Telephone Shower Arrangement, Connecting Legs & Wall Flanges but without Crutch & 
Telephone Shower
3,800
CQT-CHR-23267
Wall Mixer with Connector for Hand Shower arrangement with Connecting Legs, Wall Flanges & Wall Bracket for 
Hand Shower
4,210
CQT-CHR-23273UPR
Wall Mixer with Provision for overhead Shower with 115mm Long Bend Pipe on Upper Side, Connecting Legs & 
Wall Flanges
4,410
CQT-CHR-23281UPR
Wall Mixer 3-in-1 System with Provision for both Hand Shower & Overhead Shower Complete with 115mm Long 
Bend Pipe on Upper Side, Connecting Legs & Flanges (without Hand & Overhead Shower)
4,810
CQT-CHR-23309
Sink Mixer with Swinging Spout (Wall Mounted Model) with Connecting Legs & Wall Flanges
3,300
CQT-CHR-23309B
Sink Mixer with Swinging Spout (Table Mounted Model) with 450mm Long Braided Hoses
3,200
CQT-CHR-23321B
Sink Mixer with Extended Spout (Table Mounted Model) with 450mm Long Braided Hoses
3,900
CQT-CHR-23347
Sink Cock with Swinging Spout (Wall Mounted Model)
1,630
CQT-CHR-23037
Bib Cock
1,090
CQT-CHR-23047
Bib Cock with Wall Flange
1,130
CQT-CHR-23041
2-Way Bib Cock
1,220
CQT-CHR-23053
Angular Stop Cock
820
CQT-CHR-23059
Angular Stop Cock with Wall Flange
860
CQT-CHR-23069K
Exposed part kit of concealed stop cock with fitting sleeve, operating lever & adjustable wall flange (Compatible 
with ALD-069)
490
CQT-CHR-23083K
Exposed part kit of concealed stop cock with fitting sleeve, operating lever & adjustable wall flange (Compatible 
with ALD-083CQT & ALD-089CQT)
520
CQT-CHR-24081
Flush Cock with Wall Flange 25mm (Ceramic Disc Cartridge) with Plain Knob
2,070
CQT-CHR-24081A
Flush Cock with Wall Flange 25mm (Ceramic Disc Cartridge) with Lever Knob
2,490
FLR-CHR-5613NB
1 - Hole Bidet Mixer with Popup Waste System with 375mm Long Braided Hoses
 4,410
FLR-CHR-5037N
Bib Cock (Angular Shape) with Wall Flange
1,580
FLR-CHR-5047N
Bib Cock (Straight Line Model) with Wall Flange
1,530
FLR-CHR-5041N
2 Way Bib Cock with Wall Flange
2,120
FLR-CHR-5053N
Angular Stop Cock with Wall Flange
1,120
FLR-CHR-5083NK
Exposed Part Kit of Concealed Stop Cock & Flush Cock with Fitting Sleeve, Operating Lever & Adjustable Wall Flange 
with Seal (compatible with ALD-083, ALD-089 & ALD-081)
470
EKO
PART CODE
Description
 NRP 
EKO-CHR-33001B
Single Lever Basin Mixer without Popup Waste  System with 450mm Long Braided Hoses
3,110
EKO-CHR-33023B
Single Lever Extended Basin Mixer (Height-83mm) without Popup Waste with 450mm Long Braided Hoses
3,540
EKO-CHR-33051B
Single Lever Basin Mixer with Popup Waste  System with 450mm Long Braided Hoses
3,780
EKO-CHR-33052B
Single Lever Extended Basin Mixer (Height-83mm) with Popup Waste & 450mm Long Braided Hoses
4,180
EKO-CHR-33233NK
Exposed Part Kit of Single Lever Basin Mixer Wall Mounted Consisting of Operating Lever, Cartridge Sleeve, Wall 
Flange, Nipple & Spout (Compatible with ALD-233N & ALD-235N)
2,640
EKO-CHR-33119
Single Lever Wall Mixer with Provision of Hand Shower, But without Hand Shower
4,120
EKO-CHR-33141
Single Lever Wall Mixer with Provision for Overhead Shower from rear side with 50mm Long Collar Pipe, Elbow, 
nuts & Washers on Upper Side with Connecting Legs & Wall Flanges
5,300
18
CONTINENTAL
PART CODE
Description
 NRP 
CON-CHR-011KN
Pillar Cock
1,220
CON-CHR-021KN
Pillar Cock Long Neck with Aerator
1,620
CON-CHR-123BKN
Swan Neck Tap with Left Hand Operating Knob with 450mm Long Braided Hose
2,200
CON-CHR-127BKN
Swan Neck Tap with Right Hand Operating Knob with 450mm Long Braided Hose
2,200
CON-CHR-167KNB
Central Hole Basin Mixer without Popup Waste System with 450mm Long Braided Hoses
3,540
CON-CHR-169KNB
Central Hole Basin Mixer with Popup Waste System with 450mm Long Braided Hoses
4,320
CON-CHR-219KN
Wall Mixer Non-Telephonic Shower Arrangement with Connecting Legs & Wall Flanges
3,580
CON-CHR-217KN
Wall Mixer with Telephone Shower Arrangement,Connecting Legs & Wall Flanges but without Crutch & Telephone 
Shower
4,250
CON-CHR-267KN
Wall Mixer with Connector for Hand Shower arrangement with Connecting Legs, Wall Flanges & Wall Bracket for 
Hand Shower
4,600
CON-CHR-273KNUPR
Wall Mixer with Provision for Overhead Shower with 115mm Long Bend Pipe on Upper Side, Connecting Legs & 
Wall Flanges
4,780
CON-CHR-281KN
Wall Mixer 3-in-1 System with Provision for both Hand Shower and Overhead Shower Complete with 115mm 
Long Bend Pipe, Connecting Legs & Wall Flange (without Hand & Overhead Shower)
5,430
CON-CHR-271KN
Bath Tub Mixer (Exposed Adjustable Legs) with Telephone Shower Arrangement & Crutch
5,760
CON-CHR-309KNM
Sink Mixer with Swinging Spout (Wall Mounted Model) with Connecting Legs & Wall Flanges
3,450
CON-CHR-309KNBM
Sink Mixer with Swinging Spout (Table Mounted Model) with 450mm Long Braided Hoses 
3,350
CON-CHR-319KN
Sink Mixer with Raised ‘J’ Shaped Swinging Spout (Wall Mounted Model) with Connecting Legs & Wall Flanges
3,530
CON-CHR-319KNB
Sink Mixer with Raised ‘J’ Shaped Swinging Spout (Table Mounted Model) with 450mm Long Braided Hoses
3,430
CON-CHR-321KNB
Sink Mixer with Extended Spout (Table Mounted Model) with 450mm Long Braided Hoses
4,060
CON-CHR-347KNM
Sink Cock with Swinging Spout (Wall Mounted Model)
1,790
CON-CHR-349KNM
Sink Cock with Swinging Spout (Table Mounted Model)
2,110
CON-CHR-357KN
Sink Cock with Raised ‘J’ Shaped Swinging Spout (Wall Mounted Model)
1,910
EKO
PART CODE
Description
 NRP 
EKO-CHR-33149
Single Lever Exposed Shower Mixer for Connection to Hand Shower with Connecting Legs & Wall Flanges
3,390
EKO-CHR-33055NK
Single Lever Exposed Parts Kit of Diverter Consisting of Operating Lever, Cartridge Sleeve, Wall Flange (with 
Seals) Button Assembly Sleeve & Button (Compatible with ALD-055N)
1,030
EKO-CHR-33227K
Single Lever Exposed Parts Kit of Deusch Mixer Consisting of Operating Lever, Cartridge Sleeve, Wall Flange 
(with Seals), (Compatible with ALD-227 & ALD-229)
680
EKO-CHR-33163
Single Lever Sink Mixer Swinging Spout (Wall Mounted Model) with Connecting Legs & Wall Flanges 
4,090
EKO-CHR-33173B
Single Lever Sink Mixer with Swinging Spout (Table Mounted) with 450mm Long Braided 
Hoses
3,190
EKO-CHR-33213B
Single Lever 1 - Hole Bidet Mixer with Popup Waste System with 375mm Long Braided Hoses
 4,180
EKO-CHR-33011
Pillar Cock
1,240
EKO-CHR-33021
Pillar Cock Long Neck with Aerator
1,650
EKO-CHR-33021EXT
Pillar Cock With 170mm Extension Body
2,000
EKO-CHR-33167B
Central Hole Basin Mixer without Popup Waste System with 450mm Long Braided Hoses
3,100
EKO-CHR-33169B
Central Hole Basin Mixer with Popup Waste System with 450mm Long Braided Hoses
4,050
EKO-CHR-33273UPR
Wall Mixer with Provision for overhead Shower with 115mm Long Bend Pipe on Upper Side, Connecting Legs & 
Wall Flanges
4,420
EKO-CHR-33281
Wall Mixer 3-In-1 System With Provision For Both Hand Shower And Overhead Shower Complete With 115Mm 
Long Bend Pipe, Connecting Legs & Wall Flange (Without Hand & Overhead Shower)
4,760
EKO-CHR-33309
Sink Mixer with Swinging Spout (Wall Mounted Model) with Connecting Legs & Wall Flanges
3,490
EKO-CHR-33309B
Sink Mixer with Swinging Spout (Table Mounted Model) with 450mm Long Braided Hoses
3,390
EKO-CHR-33347
Sink Cock with Swinging Spout (Wall Mounted Model) with Wall Flange
1,820
EKO-CHR-33037
Bib Cock with Wall Flange
1,130
EKO-CHR-33041
2 Way Bib Cock with Wall Flange
1,310
EKO-CHR-33053
Angular Stop Cock with Wall Flange
840
EKO-CHR-33069K
Exposed part kit of concealed stop cock with fitting sleeve, operating lever & adjustable wall flange (Compatible 
with ALD-069)
480
19
PART CODE
Description
 NRP 
CON-CHR-359KN
Sink Cock with Raised ‘J’ Shaped Swinging Spout (Table Mounted Model)
2,240
CON-CHR-037KN
Bib Cock
1,050
CON-CHR-047KN
Bib Cock with Wall Flange
1,090
CON-CHR-107KN
Long Body Bib Cock with Wall Flange
1,430
CON-CHR-041KN
2-Way Bib Cock
1,230
CON-CHR-049NKN
Bib Cock with Nozzle
1,100
CON-CHR-053KN
Angular Stop Cock
840
CON-CHR-059KN
Angular Stop Cock with Wall Flange
880
CON-CHR-083FTK
Exposed part kit of concealed stop cock with fitting sleeve, operating lever & adjustable wall flange (Compatible 
with ALD-083FT & ALD-089FT)
510
CON-CHR-087FTK
Exposed part kit of concealed stop cock with fitting sleeve, operating lever & adjustable wall flange (Compatible 
with ALD-087FT)
580
CON-CHR-069FTK
Exposed part kit of concealed stop cock with operating lever, collor bush & adjustable wall flange (Compatible with 
ALD-069FT)
450
CON-CHR-1081KN
Flush Cock with Wall Flange 25mm with Plain Knob
2,060
CON-CHR-1081A
Flush Cock with Wall Flange 25mm with Lever Knob
2,450
CONTINENTAL
SENSOR
PART CODE
Description
 NRP 
SNR-CHR-51011N
Sensor Faucet for Wash Basin (Battery Operated)
13,650
SNR-CHR-51033
Sensor Faucet for Wash Basin in Rectangular Shape (Battery Operated)
11,000
SNR-CHR-51021
Sensor Faucet for Wash Basin (Battery Operated)
8,840
SNR-CHR-51021A
Sensor Faucet for Wash Basin with 175mm Extension Body (Battery Operated)
10,380
SNR-CHR-51001SQ
Sensor Faucet for Wash Basin in Square Shape with Base Flange (Battery Operated)
9,790
SNR-CHR-51027
Sensor Faucet for Wash Basin (Battery Operated)
9,450
SNR-CHR-35019PM
Kubix Prime Sensor Faucet for Wash Basin (Battery Operated)
8,890
SNR-CHR-35019PMPK
Kubix Prime Sensor Faucet for Wash Basin with Pre-mixed Water Supply Kit (Battery Operated)
9,730
SNR-CHR-35017PM
Kubix Prime Tall Boy Sensor Faucet for Wash Basin (Battery Operated)
11,010
SNR-CHR-35017PMPK
Kubix Prime Tall Boy Sensor Faucet for Wash Basin with Pre-mixed Water Supply Kit (Battery Operated)
11,850
SNR-CHR-15019PM
Opal Prime Sensor Faucet for Wash Basin (Battery Operated)
8,580
SNR-CHR-15019PMPK
Opal Prime Sensor Faucet for Wash Basin with Pre-mixed Water Supply Kit (Battery Operated)
9,400
SNR-CHR-15017PM
Opal Prime Tall Boy Sensor Faucet for Wash Basin (Battery Operated)
9,470
SNR-CHR-15017PMPK
Opal Prime Tall Boy Sensor Faucet for Wash Basin with Pre-mixed Water Supply Kit (Battery Operated)
10,300
SNR-CHR-51097
Sensor Flushing Valve for Urinal with Complete Kit (Battery Operated) (Suitable For Urinal URS-WHT-13255)
8,390
SNR-STL-51083
Sensor Mini Concealed Type Flushing Valve for Urinal Complete Set with Installation Box (Battery Operated)
7,550
SNR-STL-51087
Sensor Concealed Type Flushing Valve for Urinal Complete Set with Installation Box with Control Cock (Battery 
Operated)
8,740
SNR-STL-51093N
Sensor Concealed Type Flushing Valve for Western Commode Complete Set with Provision for Manual Operation 
Also (Battery Operated)
12,050
SNR-CHR-51443
Blush Wall Mounted Sensor faucet with Control Box (Battery Operated)
9,340
SNR-CHR-51443PK
Blush Wall Mounted Sensor faucet with Control Box & Pre-mixed Water Supply Kit (Battery Operated)
10,150
SNR-CHR-51445
Blush Deck Mounted Sensor faucet with Control Box (Battery Operated)
9,090
SNR-CHR-51445PK
Blush Deck Mounted Sensor faucet with Control Box & Pre-mixed Water Supply Kit (Battery Operated)
9,910
SNR-CHR-51449
Blush Tall Boy Deck Mounted Sensor faucet with Control Box (Battery Operated)
9,310
SNR-CHR-51449PK
Blush Tall Boy Deck Mounted Sensor faucet with Control Box & Pre-mixed Water Supply Kit (Battery Operated)
10,110
20
PART CODE
Description
 NRP 
PRS-CHR-001
Pillar Cock (Straight Line Model) Auto Closing System
2,070
PRS-CHR-031
Pillar Cock Auto Closing System
2,180
PRS-CHR-031L65
Pillar Cock Auto Closing System with 65mm Extension Body
2,850
PRS-CHR-061
Pressmatic Wall Mounted Basin Tap (Auto Closing) with Wall Flange (Square) 
3,740
PRS-CHR-043
Bib Cock Auto Closing System with Built-in Control Cock with Wall Flange
2,230
PRS-CHR-073
Auto closing Concealed Urinal Flush Valve with Wall Flange
2,490
PRS-CHR-077
Urinal Valve Auto Closing System with Built-in Control Cock & Wall Flange 
2,260
PART CODE
Description
 NRP 
PRS-CHR-001MED
Pillar Cock (Straight Line Model) Auto Closing System with Elbow Operated Extended Lever
3,170
PRS-CHR-031MED
Pillar Cock Auto Closing System with Elbow Operated Extended Lever
3,270
PRS-CHR-031L65MED
Pillar Cock Auto Closing System with 65mm Extension Body & Elbow Operated Extended Lever
4,190
PRS-CHR-043MED
Bib Cock Auto Closing System with Built-in Control Cock, Wall Flange & Elbow Operated Extended Lever
3,320
PRS-STL-033EF
Exposed Foot Operated Auto Closing Valve for Basin Taps & Spouts (Table Mounted Model) with Two 900 & 
1200mm Long Braided Hoses with 15mm Nuts
2,530
PRS-STL-033EFP
Exposed Foot Operated Auto Closing Valve for Pressmatic Basin Taps Only with Plug (Table Mounted Model) with 
Two 900 & 1200mm Long Braided Hoses with 15mm Nuts
2,660
PRS-STL-033EFPWC
Exposed Foot Operated Auto Closing Valve for Pressmatic Basin Taps Without Cartridge, But with Plug (Table 
Mounted Model) With Two 900 & 1200mm long Braided Hoses with 15mm nuts
1,860
PRS-CHR-277
Elbow Operated Auto Closing Extended Lever Assembly for Operating Exposed Pressmatic Basin Taps & Bib Tap
1,890
PART CODE
Description
 NRP 
FLR-CHR-5031N
Florentine Pillar Cock with Extended Lever Handle
2,100
FLR-CHR-5033B
Florentine Single Lever Surgical Purpose Elbow Action Basin Mixer with Extended Operating Lever without Popup 
Waste System with 450mm Long Braided Hoses
3,650
FLR-CHR-5043N
Florentine Bib Cock with Extended Lever Handle & Wall Flange
2,190
FLR-CHR-5166
Single Lever Surgical Purpose Elbow Action Sink Mixer (Wall Mounted) with Extended Operating Lever, Connecting 
Legs & Wall Flanges 
4,540
PART CODE
Description
 NRP 
SOT-CHR-83011
Spout Operated Pillar Tap Round Shape with Base Flange
1,530
SOT-CHR-83037
Spout Operated Bib Tap Round Shape with Wall Flange
1,480
PRESSMATIC
NEW AGE PRESSMATIC
MEDI SERIES
SPOUT OPERATING TAPS
PART CODE
Description
 NRP 
QQP-CHR-7661KPM
Aquamax Exposed Part Kit of Thermostatic Shower Mixer (Compatible with ALD-661)
3,790
QQP-CHR-7681KPM
Aquamax Exposed Part Kit of Thermostatic Shower Mixer with 2-way diverter (Compatible with ALD-681)
3,790
QQP-CHR-7683KPM
Aquamax Exposed Part Kit of Thermostatic Shower Mixer with 3-way diverter (Compatible with ALD-683)
3,790
ARC-CHR-87661K
Aquamax Exposed Part Kit of Thermostatic Shower Mixer (Suitable for ALD-661)
4,010
ARC-CHR-87681K
Aquamax Exposed Part Kit of Thermostatic Shower Mixer with 2-way diverter (Suitable for ALD-681)
4,010
ARC-CHR-87683K
Aquamax Exposed Part Kit of Thermostatic Shower Mixer with 3-way diverter (Suitable for ALD-683)
4,010
KUP-CHR-35661KPM
Aquamax Exposed Part Kit of Thermostatic Shower Mixer (Suitable for ALD-661)
3,800
KUP-CHR-35681KPM
Aquamax Exposed Part Kit of Thermostatic Shower Mixer with 2-way diverter (Suitable for ALD-681)
3,800
KUP-CHR-35683KPM
Aquamax Exposed Part Kit of Thermostatic Shower Mixer with 3-way diverter (Suitable for ALD-683)
3,800
OPP-CHR-15661KPM
Aquamax Exposed Part Kit of Thermostatic Shower Mixer (Suitable for ALD-661)
3,270
OPP-CHR-15681KPM
Aquamax Exposed Part Kit of Thermostatic Shower Mixer with 2-way diverter (Suitable for ALD-681)
3,270
AQUAMAX THERMOSTAT
21
PART CODE
Description
 NRP 
OPP-CHR-15653PM
Multifunction Thermostatic Shower Mixer with Integrated Divertor and Provision for Connection to Exposed 
Shower Pipe (SHA-1211NH & SHA-1213), Overhead & Hand Shower with Connecting Legs & Wall Flange
9,060
OPP-CHR-15655PM
Exposed Shower Mixer (Wall Mounted) with Thermostatic Control with Connecting Legs & Wall Flanges
9,350
FLR-CHR-5657
Exposed Bath Shower Mixer (Wall Mounted) with Thermosatic Control Cartidge with Button  attachment on 
Spout with Connecting Legs & Wall Flanges
9,960
FLR-CHR-5653
Multifunction Thermostatic Shower Mixer with Integrated Divertor and Provision for Connection to Exposed 
Shower Pipe (SHA-1211NH & SHA-1213), Overhead & Hand Shower with Connecting Legs & Wall Flange
8,200
FLR-CHR-5655
Exposed Shower Mixer (Wall Mounted) with Thermosatic Control with Connecting Legs & Wall Flanges
8,520
FLR-CHR-5659
Exposed Bath Shower Mixer (Tub Mounted) with Thermosatic Control Cartidge with Button attachment on Spout 
with Straight Legs
10,630
FLR-CHR-5677
4-Hole Thermostatic Bath & Shower Mixer, Deck Mounted
21,920
ARC-CHR-87677
4-Hole Thermostatic Bath & Shower Mixer, Deck Mounted
26,000
EKO-CHR-33673LWR
Exposed Shower Mixer (Wall Mounted) with Thermostatic Control Cartridge, 115mm Long Bend Pipe on Lower 
Side, Connecting Legs & Wall Flanges
6,830
AQUAMAX THERMOSTAT
THERMOSTATIC MIXERS
OPP-CHR-15683KPM
Aquamax Exposed Part Kit of Thermostatic Shower Mixer with 3-way diverter (Suitable for ALD-683)
3,270
ORP-CHR-10661KPM
Aquamax Exposed Part Kit of Thermostatic Shower Mixer (Suitable for ALD-661)
3,270
ORP-CHR-10681KPM
Aquamax Exposed Part Kit of Thermostatic Shower Mixer with 2-way diverter (Suitable for ALD-681)
3,270
ORP-CHR-10683KPM
Aquamax Exposed Part Kit of Thermostatic Shower Mixer with 3-way diverter (Suitable for ALD-683)
3,270
VGP-CHR-81661K
Aquamax Exposed Part Kit of Thermostatic Shower Mixer (Suitable for ALD-661)
3,270
VGP-CHR-81681K
Aquamax Exposed Part Kit of Thermostatic Shower Mixer with 2-way diverter (Suitable for ALD-681)
3,270
VGP-CHR-81683K
Aquamax Exposed Part Kit of Thermostatic Shower Mixer with 3-way diverter (Suitable for ALD-683)
3,270
ALI-CHR-85661K
Aquamax Exposed Part Kit of Thermostatic Shower Mixer (Suitable for ALD-661)
3,650
ALI-CHR-85681K
Aquamax Exposed Part Kit of Thermostatic Shower Mixer with 2-way diverter (Suitable for ALD-681)
3,650
ALI-CHR-85683K
Aquamax Exposed Part Kit of Thermostatic Shower Mixer with 3-way diverter (Suitable for ALD-683)
3,650
ARI-CHR-39661K
Aquamax Exposed Part Kit of Thermostatic Shower Mixer (Suitable for ALD-661)
3,120
ARI-CHR-39681K
Aquamax Exposed Part Kit of Thermostatic Shower Mixer with 2-way diverter (Suitable for ALD-681)
3,120
ARI-CHR-39683K
Aquamax Exposed Part Kit of Thermostatic Shower Mixer with 3-way diverter (Suitable for ALD-683)
3,120
FLR-CHR-5661K
Aquamax Exposed Part Kit of Thermostatic Shower Mixer (Suitable for ALD-661)
2,690
FLR-CHR-5681K
Aquamax Exposed Part Kit of Thermostatic Shower Mixer with 2-way diverter (Suitable for ALD-681)
2,690
FLR-CHR-5683K
Aquamax Exposed Part Kit of Thermostatic Shower Mixer with 3-way diverter (Suitable for ALD-683)
2,690
FLUSH VALVES
PART CODE
Description
 NRP 
FLV-CHR-1015
Flush Valve Complete with 32 mm Size Control Cock with Elbow Set & Wall Flanges (Regular Size)
5,470
FLV-CHR-1015NEL
Flush Valve Complete with 32 mm Size Control Cock with Elbow Set & Wall Flanges (NEL Size)
5,470
FLV-CHR-1015G
Flush Valve Complete with 32mm Size Control Cock with Elbow Set & Wall Flanges (Fixed Discharge of 4.0 Lts. 
Per Flusing) Regular Size
5,610
FLV-CHR-1021F
Flush Valve Complete with 32mm Size Control Cock & Wall Flange (Front Operating Lever) 
5,350
ALD-CHR-1025
Flush Valve Complete with 32mm Size Control Cock with  Elbow Set (ISI) & Wall Flanges
5,860
FLV-CHR-1029
Flush Valve Dual Flow with 32mm Control Cock with Elbow & Wall Flanges (Regular Size)
5,930
FLV-CHR-1029F
Flush Valve Dual Flow with 32mm Control Cock with Elbow & Wall Flanges (Regular Size-Front Operating Lever) 
6,150
FLV-CHR-1029NEL
Flush Valve Dual Flow with 32mm Control Cock with Elbow & Wall Flanges (NEL Size)
5,930
FLV-CHR-1029NELF
Flush Valve Dual Flow with 32mm Control Cock with Elbow & Wall Flanges (NEL Size-Front  Operating Lever) 
6,150
FLV-CHR-1039
Flush Valve Dual Flow with 32mm Size Control Cock with Elbow Set (Fixed Discharge of 3.0/6.0 Lts. Per Flushing)
5,520
FLV-CHR-1083
Elbow Set Size 32mm Complete with Adjustable Sleeve & Wall Flange
930
FLV-CHR-1001
Remote Operated Flush Valve with 32mm Size Control Cock & Operating Lever Assesmbly
5,690
FLV-CHR-1051
Concealed Flush Valve Complete with 32mm Size Control Cock & 200mm Long Operating Lever
5,960
FLV-CHR-1051L300
[...]
 13,900 
KUS-WHT-35153
Blind Installation Wall Hung Bidet With Accessories Set, Size: 355x490x305 mm 
 12,400 
KUS-WHT-35401
Floor Standing Basin With Fixing Accessories, Size: 520x460x855 mm
 28,500 
KUS-WHT-35601
Counter Top Basin, Size: 500x435x180 mm
 7,300 
KUS-WHT-35851S300UF
Single Piece WC With UF Soft Close Seat Cover, Hinges, Dual Flush Cistern Fitting, Fixing Accessories And 
Accessories Set, Size: 370x695x795 mm, S Trap- 300 mm
 32,700 
KUS-WHT-35901
"Table Top Basin, Size: 595x435x185 mm"
 8,800 
KUS-WHT-35931N
Table Top Basin, Size: 820x450x150 mm
 8,510 
KUS-WHT-35935
"Table Top Basin, Size: 565x425x140 mm "
 8,600 
KUS-WHT-35953BIUFSM
Rimless, Blind Installation Wall Hung WC With UF Soft Close Slim Seat Cover, Hinges, Accessories Set, Size: 
360x500x330  mm
 11,030 
KUS-WHT-35803
Wall Hung Integrated Basin With Fixing Accessories, Size: 490x430x390 mm
 10,100 
57
FUSION 
JAQUAR DESIGNER RANGE-BASINS
Present Codes
Description
NRP 
FSS-WHT-29601
Counter Top Basin, Size: 545x545x180 mm
7,000 
FSS-WHT-
29853S300UFSM
Rimless Single Piece WC With UF Soft Close Slim Seat Cover, Hinges, Dual Flush Cistern Fitting, Fixing 
Accessories And Accessories Set, Size: 380x670x765 mm, S Trap- 300 mm
 20,400
FSS-WHT-29901
"Table Top Basin,  
Size: 470x470x110 mm "
 6,000 
FSS-WHT-29951PP
Wall Hung WC With PP Soft Close Seat Cover, Hinges, Accessories Set, Size: 415x585x400 mm
 18,100 
Present Codes
Description
NRP 
JDS-BLM-25911
Thin Rim Table Top Basin In Black Matt, Size: 420x420x150 mm, Shape - Square
 6,975 
JDS-BLM-25907N
Thin Rim Table Top Basin In Black Matt, Size: 530x420x140 mm, Shape - Rectangular
 7,650 
JDS-WHM-25907N
Thin Rim Table Top Basin In White Matt, Size: 530x420x140 mm, Shape - Rectangular
 7,650 
JDS-WHM-25911
Thin Rim Table Top Basin In White Matt, Size: 420x420x150 mm, Shape - Square
 6,975 
JDS-WHT-25501
Semi Recessed Basin, Size: 520x430x170 mm
 8,250 
JDS-WHT-25503
Semi Recessed Basin, Size: 510x450x175 mm
6,400 
JDS-WHT-25801
"Table Top Basin, Size: 460x265x110 mm"
 3,950 
JDS-WHT-25841
Wall Hung Corner Basin With Fixing Accessories, Size: 315x450x175 mm
 5,250 
JDS-WHT-25901
"Table Top Basin, Size: 640x425x155 mm"
 4,640 
JDS-WHT-25903
"Table Top Basin, Size: 480x470x195 mm"
4,210 
JDS-WHT-25905
"Table Top Basin, Size: 450x450x170  mm"
 7,300 
JDS-WHT-25907N
Thin Rim Table Top Basin, Size: 530x420x140 mm, Shape - Rectangular
 5,930 
JDS-WHT-25909
Thin Rim Table Top Basin, Size: 495x395x150 mm, Shape - Rectangular
 3,890 
JDS-WHT-25911
Thin Rim Table Top Basin, Size: 420x420x150 mm, Shape - Square
 5,380 
JDS-WHT-25931
Table Top Basin, Size: 595x445x135 mm
 10,000 
JDS-WHT-25935
"Table Top Basin, Size: 460x460x170 mm"
 3,780 
JDS-WHT-25937
Thin Rim Table Top Basin, Size: 500x380x120 mm, Shape - Oval
 6,850 
JDS-WHT-25939
Thin Rim Table Top Basin, Size: 455x455x110 mm, Shape - Round
 6,050 
JDS-WHT-25943
"Table Top Basin Size: 640x500x130 mm"
 8,500 
OPAL
Present Codes
Description
NRP 
OPS-WHT-15305
Half Pedestal With Fixing Accessories For OPS-WHT-15801
 1,530 
OPS-WHT-15753NP180UFSMZ
Rimless Bowl With Cistern For Coupled WC With UF Soft Close Slim Seat Cover, Hinges And Fixing 
Accessories, Size: 380x645x805 mm, P Trap- 180 mm
 16,200 
OPS-WHT-15753NS250UFSMZ
Rimless Bowl With Cistern For Coupled WC With UF Soft Close Slim Seat Cover, Hinges, Dual Flush 
Cistern Fitting, Conversion Bend, Fixing Accessories And Accessories Set, Size: 380x645x805 mm, S 
Trap- 250 mm(With Conversion Bend)
 16,200 
OPS-WHT-15801
"Wall Hung Basin With Fixing Accessories, Size: 585x485x195 mm"
 3,710 
OPS-WHT-15853S300UF
Rimless Single Piece WC With UF Soft Close Seat Cover, Hinges, Dual Flush Cistern Fitting, Fixing 
Accessories And Accessories Set, Size: 360x675x750 mm, S Trap- 300 mm
 26,300 
OPS-WHT-15901N
Thin Rim Table Top Basin, Size: 480x480x135 mm,  Shape - Round
 4,220 
OPS-WHT-15905
Thin Rim Table Top Basin, Size: 415x415x145 mm,  Shape - Round
 5,600 
OPS-WHT-15951UF
Wall Hung WC With UF Soft Close Seat Cover, Hinges, Accessories Set, Size: 360x585x415 mm
 17,700 
OPS-WHT-15955P180UFSM
Rimless Back To Wall WC With UF Soft Close Slim Seat Cover, Hinges, Fixing Accessories And 
Accessories Set, Size: 370x580x430 mm, P Trap- 180 mm
 18,200 
OPS-WHT-15803
Wall Hung Integrated Basin With Fixing Accessories, Size: 530x460x400 mm
9,850
OPS-WHT-15961BIUFSMTL
Tankless Wall Hung Wc With Sensor Flush, Uf Soft Close Slim Seat Cover, Hinges, Accessories Set, Size: 
380X625x385 Mm
22,000
58
LYRIC
Present Codes
Description
NRP 
LYS-WHT-38301
Full Pedestal For LYS-WHT-38801
 1,930 
LYS-WHT-38305
Half Pedestal With Fixing Accessories For LYS-WHT-38801
 1,550 
LYS-WHT-38751P180UFSMZ
Bowl With Cistern For Coupled Wc With Uf Soft Close Slim Seat Cover, Hinges, Fixing Accessories And 
Accessories Set, Cistern Fittings, Size: 380X660x765 Mm, P Trap-180Mm
17,200
LYS-WHT-38751S250UFSMZ
Bowl With Cistern For Coupled Wc With Uf Soft Close Slim Seat Cover, Hinges, Fixing Accessories And 
Accessories Set, Cistern Fittings, Size: 380X660x765 Mm, S Trap-250Mm
17,200
LYS-WHT-38801
"Wall Hung Basin With Fixing Accessories, Size: 590x490x185 mm"
 3,940 
LYS-WHT-38851P180UFSM
Single Piece WC With UF Soft Close Slim Seat Cover, Hinges, Dual Flush Cistern Fitting, Fixing 
Accessories, Size: 360x655x765 mm, P Trap- 180 mm
 21,400 
LYS-WHT-38851S220UFSM
Single Piece WC With UF Soft Close Slim Seat cover, Hinges, Dual Flush Cistern Fitting, Fixing 
Accessories And  Accessories Set, Size:365x655x765 mm, S Trap- 220 mm
 21,400 
LYS-WHT-38851S220UFSMN
Single Piece WC With UF Soft Close Slim Seat Cover, Hinges, Dual Flush Cistern Fitting, Fixing 
Accessories And Accessories Set, Size: 370x670x720 mm, S Trap- 220 mm
 21,400 
LYS-WHT-38851S300UFSM
Single Piece WC With UF Soft Close Slim Seat cover, Hinges, Dual Flush Cistern Fitting, Fixing 
Accessories And  Accessories Set, Size:365x655x765 mm, S Trap- 300 mm
 21,400 
LYS-WHT-38851S300UFSMN
Single Piece WC With UF Soft Close Slim Seat Cover, Hinges, Dual Flush Cistern Fitting, Fixing 
Accessories And Accessories Set, Size: 370x670x720 mm, S Trap- 300 mm
 21,400 
LYS-WHT-38901N
Thin Rim Table Top Basin, Size: 600x410x100 mm, Shape - Triangular
 5,660 
LYS-WHT-38931
"Table Top Basin, Size: 635x410x120 mm"
 4,890 
LYS-WHT-38953BIUFSM
Rimless, Blind Installation Wall Hung WC With UF Soft Close Slim Seat Cover, Hinges, Accessories Set, 
Size: 360x500x360 mm
 14,000 
LAS-WHT-91901
Table top basin, Size:380x380x130MM, Shape : Square
4,950
LAS-WHT-91903
Table top basin, Size:450x450x130MM, Shape : Square
6,700
LAS-WHT-91905
Table top basin, Size:600x380x130MM, Shape : Rectangular
7,200
LAS-WHT-91801
Wall hung basin with fixing accessories, Size:500x450x175MM
8,500
LAS-WHT-91301
Full Pedestal For 91801
4,300
LAS-WHT-91953BIUFSM
Rimless Blind Installation Wall Hung WC  with UF Soft close slim seat cover, hinges and accessories set, 
Size: 370x525x350
16,300
LAS-WHT-91701
Under counter basin with fixing accessories, Size: 450x450x170 MM, Shape : Square
6,900
LAS-WHT-91703
Under counter basin with fixing accessories, Size: 600x450x170 MM, Shape : Rectangular
8,200
LAS-WHT-91705
Under counter basin with fixing accessories, Size: 350x350x160 MM, Shape : Round
4,800
LAS-WHT-91707
Under counter basin with fixing accessories, Size: 450x450x170 MM, Shape : Round
6,500
LAS-WHT-91931
Table Top wash basin with three tap hole   600x450x175 MM
10,190
LAS-WHT-91153
Wall Hung Bidet, Size: 370x525x270 MM 
8,700
59
QUEENS PRIME
Present Codes
Description
NRP 
QPS-WHT-7151PM
Floor Mounted Bidet With Fixing Accessories, Size: 410x570x420 mm
 11,100 
QPS-WHT-7153PM
Wall Hung Bidet, Size: 420x560x370 mm
 10,200 
QPS-WHT-7303PM
Full Pedestal For QPS-WHT-7803PM
 3,650 
QPS-WHT-7701PM
Under Counter Basin With Fixing Accessories, Size: 590x430x215 mm
 6,600 
QPS-WHT-7753P180UFPMZ
Rimless Bowl With Cistern For Coupled WC, UF Soft Close Seat Cover, Hinges, Dual Flush Cistern Fitting 
And Fixing Accessories, Size: 420x710x810 mm, P Trap- 180 mm
 26,200 
QPS-WHT-7753P180UFSPMZ
Rimless Bowl With Side Flush Cistern For Coupled WC, UF Soft Close Seat Cover, Hinges, Single Flush 
Cistern Fitting And Fixing Accessories, Size: 420x710x810 mm, P Trap- 180 mm
 26,200 
QPS-WHT-7753S250UFPMZ
Rimless Bowl With Cistern For Coupled WC, UF Soft Close Seat Cover, Hinges, Dual Flush Cistern 
Fitting, Conversion Bend And Fixing Accessories, Size: 420x710x810 mm, S Trap- 250 mm (With 
Conversion Bend)
26.200 
QPS-WHT-7753S250UFSPMZ
Rimless Bowl With Side Flush Cistern For Coupled WC, UF Soft Close Seat Cover, Hinges, Conversion 
Bend, Single Flush Cistern Fitting And Fixing Accessories, Size: 420x710x810 mm, S Trap- 250 mm 
(With Conversion Bend)
 26,200
QPS-WHT-7803PM
"Wall Hung Basin With Fixing Accessories,  
Size: 610x465x275 mm"
9,100 
QPS-WHT-7901PM
"Table Top Basin,  
Size: 600x460x195 mm"
10,200
QPS-WHT-7953UFPM
Rimless Wall Hung WC With UF Soft Close Seat Cover, Hinges, Accessories Set, Size: 420x560x370 mm
 20,900 
QPS-WHT-7955P180UFPM
Rimless Back To Wall WC With UF Soft Close Seat Cover, Hinges, Fixing Accessories And Accessories 
Set, Size: 410x570x420 mm, P Trap- 180 mm
 17,900 
ORNAMIX
Present Codes
Description
NRP 
ONS-WHT-10153
Blind Installation Wall Hung Bidet With Accessories Set, Size: 360x490x350 mm
10,900 
ONS-WHT-10203
Cistern With Dual Flush Cistern Fitting For 10753NS250UFSM & 10753P180UFSM
 7,700 
ONS-WHT-10753NS250UFSM
Rimless Bowl For Coupled WC With UF Soft Close Slim Seat Cover, Hinges, Conversion Bend, Fixing 
Accessories And Accessories Set, Size: 385x645x815 mm, S Trap- 250 mm(With Conversion Bend) 
 17,700 
ONS-WHT-10753P180UFSM
Rimless Bowl For Coupled WC With UF Soft Close Slim Seat Cover, Hinges, Fixing Accessories, Size: 
385x645x815 mm, P Trap- 180 mm
 17,700 
ONS-WHT-10801
Wall Hung Integrated Basin With Fixing Accessories, Size: 495x440x365 mm
 9,400 
ONS-WHT-10853S300UFSM
Rimless Single Piece WC With UF Soft Close Slim Seat Cover, Hinges, Dual Flush Cistern Fitting, Fixing 
Accessories And Accessories Set, Size: 385x720x715 mm, S Trap- 300 mm
21,300 
ONS-WHT-10901
"Table Top Basin,  
Size: 425x425x145 mm"
 4,900 
ONS-WHT-10953BIUFSM
Rimless, Blind Installation Wall Hung WC With UF Soft Close Slim Seat Cover, Hinges, Accessories Set, 
Size: 370x490x365 mm
 12,900 
ONS-WHT-10955P180UFSM
Rimless Back To Wall WC With UF Soft Close Slim Seat Cover, Hinges, Fixing Accessories And 
Accessories Set, Size: 360x575x410 mm, P Trap- 180 mm
 15,300
ONS-WHT-10961BIUFSMTL
Tankless Wall Hung Wc With Sensor Flush, Uf Soft Close Slim Seat Cover, Hinges, Accessories Set, Size: 
360X580x380 Mm
22,000
Present Codes
Description
NRP 
URS-WHT-13253N
Urinal (Back Inlet) With Fixing Accessories, Size: 385x325x635 mm
 6,780 
URS-WHT-13253O
Urinal (Back Inlet) With Fixing Accessories, Size: 375x320x620 mm
 6,780 
URS-WHT-13255
Urinal Without Sensor With Fixing Accessories, Size: 480x300x740 mm
10,300 
URS-WHT-13257
Urinal (Top Inlet) With Fixing Accessories, Size: 345x320x610 mm
 8,300 
URS-WHT-13259
Urinal (Top Inlet) With Fixing Accessories, Size: 475x315x715 mm
 9,600 
URS-WHT-13261
"Urinal With Fixing Accessories, Size: 355x340x535 mm
 3,700 
URS-WHT-13263
Urinal (Back Inlet) With Fixing Accessories, Size: 340x325x650 mm
 10,500 
    
URINAL 
URS-WHT-13261H
Urinal With Spreader Hole And Fixing Accessories, Size: 355x340x535 mm
3,700
60
Present Codes
Description
NRP 
VGS-WHT-81151
Floor Mounted Bidet With Fixing Accessories, Size: 380x605x385 mm
 14,500 
VGS-WHT-81153
"Wall Hung Bidet With Accessories Set, Size: 400x580x335 mm 
 13,100 
VGS-WHT-81307
Half Pedestal With Fixing Accessories For VGS-WHT-81803
 2,410 
VGS-WHT-81753P180UFSMZ
Rimless Bowl With Cistern For Coupled WC With UF Soft Close Slim Seat Cover, Hinges, Dual Flush 
Cistern Fitting, Fixing Accessories And Accessories Set,  Size: 380x610x805 mm, P Trap- 180 mm
 18,200 
VGS-WHT-81753S250UFSMZ
Rimless Bowl With Cistern For Coupled WC With UF Soft Close Slim Seat Cover, Hinges, Dual Flush 
Cistern Fitting, Conversion Bend, Fixing Accessories And Accessories Set,  Size: 380x610x805 mm, S 
Trap- 250 mm(With Conversion Bend)
 18,200 
VGS-WHT-81803
"Wall Hung Basin With Fixing Accessories, Size: 720x460x190 mm"
 4,790 
VGS-WHT-81853P180UF
Rimless Single Piece WC With UF Soft Close Seat Cover, Hinges, Dual Flush Cistern Fitting, Fixing 
Accessories And Accessories Set, Size: 395x710x730 mm, P Trap- 180 mm
24,500
VGS-WHT-81853S300UF
Rimless Single Piece WC With UF Soft Close Seat Cover, Hinges, Dual Flush Cistern Fitting, Fixing 
Accessories And Accessories Set, Size: 395x710x730 mm, S Trap- 300 mm
 24,500 
VGS-WHT-81931N
"Table Top Basin, Size: 600x385x195 mm"
 7,850 
VGS-WHT-81953UF
Rimless Wall Hung WC With UF Soft Close Seat Cover, Hinges, Accessories Set, Size: 390x570x365 mm
 16,800 
VIGNETTE
SOLO
Present Codes
Description
NRP 
SLS-BLM-6953BIUFSM
Rimless, Blind Installation Wall Hung WC In Black Matt With UF Soft Close Slim Seat Cover, Hinges And 
Accessories Set, Size: 375x520x400 mm
 13,500 
SLS-WHM-6953BIUFSM
Rimless, Blind Installation Wall Hung WC In White Matt With UF Soft Close Slim Seat Cover, Hinges And 
Accessories Set, Size: 375x520x400 mm
 13,500 
SLS-WHT-6153
Blind Installation Wall Hung Bidet With Accessories Set, Size: 360x515x360 mm 
 12,200 
SLS-WHT-6301
Full Pedestal For SLS-WHT-6801
 1,780 
SLS-WHT-6305
Half Pedestal With Fixing Accessories For SLS-WHT-6801
 1,480 
SLS-WHT-6601
Counter Top Basin, Size: 600x400x185 mm
 5,080 
SLS-WHT-6751P180PPZ
Bowl With Cistern For Coupled WC With PP  Soft Close Seat Cover, Hinges, Dual Flush Cistern Fitting, Fixing 
Accessories and Accessories Set, Size: 375x650x790 mm, P Trap- 180 MM
 10,290 
SLS-WHT-6751S220PPZ
Bowl With Cistern For Coupled WC With PP  Soft Close Seat Cover, Hinges, Dual Flush Cistern Fitting, Fixing 
Accessories and Accessories Set, Size: 375x650x790 mm, S Trap- 220 mm
 10,290 
SLS-WHT-6801
"Wall Hung Basin With Fixing Accessories, Size: 575x465x200 mm"
 3,730 
SLS-WHT-6851P180PP
Single Piece WC With PP Soft Close Seat Cover, Hinges, Dual Flush Cistern Fitting And Fixing Accessories, 
Size: 360x640x685 mm, P Trap- 180 mm
 18,500 
SLS-WHT-6851S110PP
Single Piece WC With PP Soft Close Seat Cover, Hinges, Dual Flush Cistern Fitting, Fixing Accessories And 
Accessories Set, Size: 360x640x685 mm, S Trap- 110 mm
 18,500 
SLS-WHT-6851S220PP
Single Piece WC With PP Soft Close Seat Cover, Hinges, Dual Flush Cistern Fitting, Fixing Accessories And 
Accessories Set, Size: 360x640x685 mm, S Trap- 220 mm
 18,500 
SLS-WHT-6851S300PP
Single Piece WC With PP Soft Close Seat Cover, Hinges, Dual Flush Cistern Fitting, Fixing Accessories And 
Accessories Set, Size: 360x730x740 mm, S Trap- 300 mm
 18,500 
SLS-WHT-6851S300UF
Single Piece WC With UF Soft Close Seat Cover, Hinges, Dual Flush Cistern Fitting, Fixing Accessories And 
Accessories Set, Size: 360x730x740 mm, S Trap- 300 mm
 20,500 
SLS-WHT-6901
Table Top Basin, Size: 485x370x150 mm
 3,750 
SLS-WHT-6905
Thin Rim Table Top Basin, Size: 360x360x120 mm, Shape - Round
 5,600 
SLS-WHT-6951JPPSM
Wall Hung WC With In Built Jet, PP Soft Close Slim Seat, Hinges, Accessories Set, Size: 365x525x400 mm
 10,420 
SLS-WHT-6951JUFSM
Wall Hung WC With In Built Jet, UF Soft Close Slim Seat, Hinges, Accessories Set, Size: 365x525x400 mm
 11,410 
SLS-WHT-6953BIPPSM
Rimless, Blind Installation Wall Hung WC With PP Soft Close Slim Seat Cover, Hinges And Accessories Set, 
Size: 375x520x400 mm
 10,010 
SLS-WHT-6953BIUFSM
Rimless, Blind Installation Wall Hung WC With UF Soft Close Slim Seat Cover, Hinges And Accessories Set, 
Size: 375x520x400 mm
 11,000 
61
ITEM CODE
ITEM DESCRIPTION
NRP 
INS-WHT-3KW01
INSTANT 01 LTR GEYSER (3KW)
3,380 
INS-WHT-3KW03
INSTANT 3 LTR GEYSER (3KW)
 3,820 
INS-WHT-4.5KW01
INSTANT 1 LTR GEYSER (4.5KW)
3,540 
INS-WHT-4.5KW03
INSTANT 03 LTR GEYSER (4.5KW)
3,980 
ELENA VERTICAL MANUAL
ITEM CODE
ITEM DESCRIPTION
NRP 
ELM-WHT-V006
ELENA MANUAL 06 LTR
 8,400
ELM-WHT-V010
ELENA MANUAL 10 LTR
 9,200
ELM-WHT-V015
ELENA MANUAL 15 LTR
10,600
ELM-WHT-V025
ELENA MANUAL 25 LTR
12,400
ELENA+ VERTICAL MANUAL
ITEM CODE
 ITEM DESCRIPTION
NRP 
ELM-WHT-3KWV006
ELENA+ MANUAL VERTICAL 6L (3KW)
 8,700
ELM-WHT-3KWV010
ELENA+ MANUAL VERTICAL 10L (3KW)
10,000
ERICA VERTICAL MANUAL
ITEM CODE
 ITEM DESCRIPTION
NRP 
ERM-WHT-V006
ERICA MANUAL STORAGE WATER HEATER 06L
 9,100
ERM-WHT-V010
ERICA MANUAL STORAGE WATER HEATER 10L
10,000
ERM-WHT-V015
ERICA MANUAL STORAGE WATER HEATER 15L
11,600
ERM-WHT-V025
ERICA MANUAL STORAGE WATER HEATER 25L
14,000
ERICA VERTICAL DIGITAL
ITEM CODE
 ITEM DESCRIPTION
NRP 
ERD-WHT-V015
ERICA DIGITAL STORAGE WATER HEATER 15L
14,800
ERD-WHT-V025
ERICA DIGITAL STORAGE WATER HEATER 25L
17,200
ELENA HORIZONTAL MANUAL
ITEM CODE
 ITEM DESCRIPTION
NRP 
ELM-WHT-LHS015
ELENA MANUAL HORIZONTAL 15 LTR (LHS)
  9,160 
ELM-WHT-LHS025
ELENA MANUAL HORIZONTAL 25 LTR (LHS)
 10,830 
ELM-WHT-H015
ELENA MANUAL HORIZONTAL 15 LTR (RHS)
  9,160 
ELM-WHT-H025
ELENA MANUAL HORIZONTAL 25 LTR (RHS)
 10,830 
VERSA HORIZONTAL MANUAL
ITEM CODE
 ITEM DESCRIPTION
NRP 
VRM-WHT-H040
VERSA MANUAL HORIZONTAL 40 LTR
13,800
VRM-WHT-H060
VERSA MANUAL HORIZONTAL 60 LTR
15,900
VRM-WHT-H080
VERSA MANUAL HORIZONTAL 80 LTR
18,900
VRM-WHT-H100
VERSA MANUAL HORIZONTAL 100 LTR
20,000
VERSA VERTICAL MANUAL
ITEM CODE
 ITEM DESCRIPTION
NRP 
VRM-WHT-V040
VERSA MANUAL VERTICAL 40 LTR.
 13,800
VRM-WHT-V060
VERSA MANUAL VERTICAL 60 LTR.
 15,900
VRM-WHT-V080
VERSA MANUAL VERTICAL 80 LTR
 18,900
VRM-WHT-V100
VERSA MANUAL VERTICAL 100 LTR
 20,000
WATER HEATERS
INSTA ELECTRIC
62
ELENA PRIME VERTICAL MANUAL
ITEM CODE
ITEM DESCRIPTION
 NRP 
EPM-WHT-V006
ELENA PRIME VERTICAL 6L
9,200
EPM-WHT-V010
ELENA PRIME VERTICAL 10L
10,400
EPM-WHT-V015
ELENA PRIME VERTICAL 15L
11,900
EPM-WHT-V025
ELENA PRIME VERTICAL 25L
12,700
META VERTICAL MANUAL
INSTA GAS
ITEM CODE
ITEM DESCRIPTION
 NRP 
ING-WHT-LPG006
INSTANT GAS GEYSER 06L
7,000
VERNA FLOOR MOUNTING
ITEM CODE
ITEM DESCRIPTION
 NRP 
VRN-GRY-200
VERNA FLOOR MOUNTING 200L
56,600
VRN-GRY-300
VERNA FLOOR MOUNTING 300L
69,000
VRN-GRY-400
VERNA FLOOR MOUNTING 400L
78,200
VRN-GRY-500
VERNA FLOOR MOUNTING 500L
1,03,000
INTEGRA-X MONOBLOC HEAT PUMP
ITEM CODE
ITEM DESCRIPTION
 NRP 
HPM-WHT-P200
INTEGRA - X MONO BLOC HEAT PUMP 200L
1,67,000
HPM-WHT-P300
INTEGRA - X MONO BLOC HEAT PUMP 300L
 1,86,000 
ITEM CODE
ITEM DESCRIPTION
 NRP 
MET-WHT-PV006
META MANUAL VERTICAL 06L
6,370
MET-WHT-PV010
META MANUAL VERTICAL 10L
6,870
MET-WHT-PV015
META MANUAL VERTICAL 15L
7,510
MET-WHT-PV025
META MANUAL VERTICAL 25L
8,420
META VERTICAL SEMI DIGITAL
ITEM CODE
ITEM DESCRIPTION
 NRP 
MET-WHT-V006
META SEMI DIGITAL 06L
6,900
MET-WHT-V010
META SEMI DIGITAL 10L
7,500
MET-WHT-V015
META SEMI DIGITAL 15L
7,900
MET-WHT-V025
META SEMI DIGITAL 25L
9,950
VERSA HORIZONTAL DIGITAL
ITEM CODE
ITEM DESCRIPTION
 NRP 
VRD-WHT-H040
VERSA DIGITAL HORIZONTAL 40 LTR
16,800
VRD-WHT-H060
VERSA DIGITAL HORIZONTAL 60 LTR
19,300
VRD-WHT-H080
VERSA DIGITAL HORIZONTAL 80 LTR
21,700
VRD-WHT-H100
VERSA DIGITAL HORIZONTAL 100 LTR
23,700
ALEXA HORIZONTAL DIGITAL
ITEM CODE
ITEM DESCRIPTION
 NRP 
AXP-WHT-H020
ALEXA PLUS HORIZONTAL 20L
21,800
ALX-WHT-H030
ALEXA HORIZONTAL 30L
23,900
63
INTEGRA-X SPLIT HEAT PUMP
ITEM CODE
ITEM DESCRIPTION
 NRP 
HPS-WHT-200X
INTEGRA - X SPLIT HEAT PUMP
1,66,000
HPS-WHT-300X
INTEGRA - X SPLIT HEAT PUMP
1,88,000
HPS-WHT-400X
INTEGRA - X SPLIT HEAT PUMP
2,44,000
HPS-WHT-500X
INTEGRA - X SPLIT HEAT PUMP
2,90,000
INTEGRA SPLIT HEAT PUMP
ITEM CODE
ITEM DESCRIPTION
 NRP 
HPS-WHT-300
INTEGRA  SPLIT HEAT PUMP 300L
1,93,000
HPS-WHT-400
INTEGRA SPLIT HEAT PUMP 400L
2,05,000
HPS-WHT-500
INTEGRA SPLIT HEAT PUMP 500L
2,52,000
Note:
• The prices are subject to change without notice and those ruling at the time of supply will be charged
• This price list supercedes all our previous prices and / or price list(s)
• Features may vary from model to model
Jaquar has an ongoing policy of design, development and improvement and thus reserves the right to  
modify specification and prices without any prior notice.
